 ****** HSPICE -- Q-2020.03-SP2-2 linux64 (Nov  1 2020) ******                  
  Copyright (c) 1986 - 2024 by Synopsys, Inc. All Rights Reserved.              
  This software and the associated documentation are proprietary
  to Synopsys, Inc. This software may only be used in accordance
  with the terms and conditions of a written license agreement with
  Synopsys, Inc. All other use, reproduction, or distribution of
  this software is strictly prohibited.
  Input File: multiplier.sp                                                     
  Command line options: /RAID2/cad/synopsys/hspice/2020.03-sp2-2/hspice/linux64/hspice multiplier.sp -o multiplier.lis
  Start time: Tue Dec 31 10:37:09 2024
 lic:  
 lic: FLEXlm: SDK_12.6 
 lic: USER:   icst_dic113          HOSTNAME: ee21 
 lic: HOSTID: "d85ed3efbe85"       PID:      17069 
 lic: Using FLEXlm license file: 
 lic: 26585@lshc 
 lic: Checkout 1 hspice 
 lic: License/Maintenance for hspice will expire on 14-may-2025/2024.09 
 lic: 390(in_use)/1100(total) FLOATING license(s) on SERVER 26585@lshc 
 lic:   
  **warning** Global net name "vdd" in subckt pin list. The pin will be connected to the local net. Recommend to not use global net names in subckt pin lists.
             
 Summary of Linear Res Distribution Info
 ---------------------------------------
 |Range          |Total     |Percent(%)|
 |---------------+----------+----------|
 |0e+00  ~  1e-05|2443      |0.9753    |
 |1e-02  ~  1e-01|21685     |8.6572    |
 |1e-01  ~  1e+00|35408     |14.1358   |
 |1e+00  ~  1e+03|190949    |76.2317   |
 ---------------------------------------
              
             
 Summary of Linear Cap Distribution Info
 ---------------------------------------
 |Range          |Total     |Percent(%)|
 |---------------+----------+----------|
 |1e-20  ~  1e-19|3964      |1.2500    |
 |1e-19  ~  1e-18|91907     |28.9821   |
 |1e-18  ~  1e-17|158505    |49.9833   |
 |1e-17  ~  1e-16|62740     |19.7846   |
 ---------------------------------------
              
             
 Summary of Detailed RC Type Statistics
 -------------------------
 |Element Type|Number    |
 |------------+----------|
 |Constant Res|250485    |
 |            |          |
 |Constant Cap|317116    |
 -------------------------
              
 *****************************************************************
 ******  option summary
 ******
 runlvl  = 3         bypass  = 2.0000    
  Opening plot unit= 15
 file=multiplier.pa0

1****** HSPICE -- Q-2020.03-SP2-2 linux64 (Nov  1 2020) ******                  
 ******  
 .title dic_final

 ****** operating point information tnom=  25.000 temp=  25.000 ******
 ****** operating point status is voltage   simulation time is     0.     
        node    =voltage          node    =voltage          node    =voltage

 +    0:bl      = 280.0000m     0:blb     = 280.0000m     0:clk     = 700.0000m
 +    0:i1      = 700.0000m     0:i10     = 700.0000m     0:i10_buf = 559.9983m
 +    0:i10_inv =   1.0432u     0:i11     =   0.          0:i11_buf =   1.0292u
 +    0:i11_inv = 559.9982m     0:i12     = 700.0000m     0:i12_buf = 559.9983m
 +    0:i12_inv =   1.0488u     0:i13     =   0.          0:i13_buf =   1.0292u
 +    0:i13_inv = 559.9982m     0:i14     = 700.0000m     0:i14_buf = 559.9983m
 +    0:i14_inv =   1.0404u     0:i15     =   0.          0:i15_buf =   1.0292u
 +    0:i15_inv = 559.9982m     0:i16     =   0.          0:i16_buf =   1.0292u
 +    0:i16_inv = 559.9982m     0:i17     = 700.0000m     0:i17_buf = 559.9983m
 +    0:i17_inv =   1.0572u     0:i18     = 700.0000m     0:i18_buf = 559.9983m
 +    0:i18_inv =   1.0460u     0:i19     =   0.          0:i19_buf =   1.0292u
 +    0:i19_inv = 559.9982m     0:i1_buf  = 559.9983m     0:i1_inv  =   1.0572u
 +    0:i2      =   0.          0:i20     = 700.0000m     0:i20_buf = 559.9983m
 +    0:i20_inv =   1.0460u     0:i21     =   0.          0:i21_buf =   1.0292u
 +    0:i21_inv = 559.9982m     0:i22     = 700.0000m     0:i22_buf = 559.9983m
 +    0:i22_inv =   1.0432u     0:i23     =   0.          0:i23_buf =   1.0292u
 +    0:i23_inv = 559.9982m     0:i24     =   0.          0:i24_buf =   1.0292u
 +    0:i24_inv = 559.9982m     0:i25     =   0.          0:i25_buf =   1.0292u
 +    0:i25_inv = 559.9982m     0:i26     =   0.          0:i26_buf =   1.0292u
 +    0:i26_inv = 559.9982m     0:i27     = 700.0000m     0:i27_buf = 559.9983m
 +    0:i27_inv =   1.0572u     0:i28     = 700.0000m     0:i28_buf = 559.9983m
 +    0:i28_inv =   1.0460u     0:i29     =   0.          0:i29_buf =   1.0292u
 +    0:i29_inv = 559.9982m     0:i2_buf  =   1.0292u     0:i2_inv  = 559.9982m
 +    0:i3      = 700.0000m     0:i30     = 700.0000m     0:i30_buf = 559.9983m
 +    0:i30_inv =   1.0432u     0:i31     = 700.0000m     0:i31_buf = 559.9983m
 +    0:i31_inv =   1.0544u     0:i32     =   0.          0:i32_buf =   1.0292u
 +    0:i32_inv = 559.9982m     0:i3_buf  = 559.9983m     0:i3_inv  =   1.0348u
 +    0:i4      = 700.0000m     0:i4_buf  = 559.9983m     0:i4_inv  =   1.0460u
 +    0:i5      = 700.0000m     0:i5_buf  = 559.9983m     0:i5_inv  =   1.0460u
 +    0:i6      =   0.          0:i6_buf  =   1.0292u     0:i6_inv  = 559.9982m
 +    0:i7      = 700.0000m     0:i7_buf  = 559.9983m     0:i7_inv  =   1.0432u
 +    0:i8      =   0.          0:i8_buf  =   1.0292u     0:i8_inv  = 559.9982m
 +    0:i9      =   0.          0:i9_buf  =   1.0292u     0:i9_inv  = 559.9982m
 +    0:in_valid=   0.          0:o_1_10_1= 559.9982m     0:o_1_10_2=   1.0492u
 +    0:o_1_10_3=   1.0842u     0:o_1_10_4= 559.9983m     0:o_1_11_1=   1.0507u
 +    0:o_1_11_2=   1.0507u     0:o_1_11_3=   1.0838u     0:o_1_11_4=   1.0560u
 +    0:o_1_12_1= 559.9982m     0:o_1_12_2= 559.9982m     0:o_1_12_3= 559.9983m
 +    0:o_1_12_4= 559.9983m     0:o_1_13_1=   1.0563u     0:o_1_13_2=   1.0563u
 +    0:o_1_13_3=   1.0562u     0:o_1_13_4=   1.0551u     0:o_1_14_1= 559.9983m
 +    0:o_1_14_2=   1.0549u     0:o_1_14_3=   1.0564u     0:o_1_14_4= 559.9982m
 +    0:o_1_15_1=   1.0551u     0:o_1_15_2=   1.0551u     0:o_1_15_3=   1.0552u
 +    0:o_1_15_4=   1.0564u     0:o_1_16_1=   1.0552u     0:o_1_16_2=   1.0563u
 +    0:o_1_16_3=   1.0567u     0:o_1_16_4=   1.0416u     0:o_1_17_1= 559.9983m
 +    0:o_1_17_2=   1.0588u     0:o_1_17_3=   1.0549u     0:o_1_17_4= 559.9982m
 +    0:o_1_18_1= 559.9983m     0:o_1_18_2= 559.9982m     0:o_1_18_3= 559.9982m
 +    0:o_1_18_4=   1.0553u     0:o_1_19_1=   1.0564u     0:o_1_19_2=   1.0702u
 +    0:o_1_19_3=   1.0492u     0:o_1_19_4=   1.0416u     0:o_1_1_1 = 559.9983m
 +    0:o_1_1_2 = 559.9983m     0:o_1_1_3 = 559.9982m     0:o_1_1_4 = 559.9983m
 +    0:o_1_20_1=   1.0562u     0:o_1_20_2=   1.0416u     0:o_1_20_3= 559.9982m
 +    0:o_1_20_4=   1.0483u     0:o_1_21_1=   1.0551u     0:o_1_21_2=   1.0702u
 +    0:o_1_21_3=   1.0541u     0:o_1_21_4=   1.0484u     0:o_1_22_1=   1.0551u
 +    0:o_1_22_2= 559.9982m     0:o_1_22_3= 559.9983m     0:o_1_22_4=   1.0492u
 +    0:o_1_23_1=   1.0497u     0:o_1_23_2=   1.0560u     0:o_1_23_3=   1.0710u
 +    0:o_1_23_4=   1.0549u     0:o_1_24_1=   1.0507u     0:o_1_24_2=   1.0492u
 +    0:o_1_24_3=   1.0749u     0:o_1_24_4=   1.0643u     0:o_1_25_1=   1.0703u
 +    0:o_1_25_2=   1.0492u     0:o_1_25_3=   1.0654u     0:o_1_25_4=   1.0492u
 +    0:o_1_26_1=   1.0541u     0:o_1_26_2=   1.0560u     0:o_1_26_3=   1.0862u
 +    0:o_1_26_4=   1.0564u     0:o_1_27_1= 559.9983m     0:o_1_27_2= 559.9983m
 +    0:o_1_27_3= 559.9982m     0:o_1_27_4=   1.0541u     0:o_1_28_1=   1.0549u
 +    0:o_1_28_2=   1.0507u     0:o_1_28_3= 559.9983m     0:o_1_28_4= 559.9983m
 +    0:o_1_29_1=   1.0382u     0:o_1_29_2=   1.0597u     0:o_1_29_3=   1.0448u
 +    0:o_1_29_4=   1.0434u     0:o_1_2_1 =   1.0562u     0:o_1_2_2 =   1.0560u
 +    0:o_1_2_3 =   1.0497u     0:o_1_2_4 =   1.0560u     0:o_1_30_1=   1.0492u
 +    0:o_1_30_2=   1.0551u     0:o_1_30_3= 559.9983m     0:o_1_30_4=   1.0507u
 +    0:o_1_31_1= 559.9982m     0:o_1_31_2= 559.9983m     0:o_1_31_3= 559.9983m
 +    0:o_1_31_4=   1.0413u     0:o_1_32_1=   1.0563u     0:o_1_32_2=   1.0560u
 +    0:o_1_32_3=   1.0551u     0:o_1_32_4=   1.0714u     0:o_1_3_1 =   1.0552u
 +    0:o_1_3_2 =   1.0572u     0:o_1_3_3 =   1.0552u     0:o_1_3_4 =   1.0700u
 +    0:o_1_4_1 =   1.0541u     0:o_1_4_2 = 559.9983m     0:o_1_4_3 =   1.0416u
 +    0:o_1_4_4 = 559.9983m     0:o_1_5_1 =   1.0507u     0:o_1_5_2 =   1.0416u
 +    0:o_1_5_3 = 559.9982m     0:o_1_5_4 =   1.0610u     0:o_1_6_1 =   1.0492u
 +    0:o_1_6_2 =   1.0541u     0:o_1_6_3 =   1.0564u     0:o_1_6_4 =   1.0492u
 +    0:o_1_7_1 =   1.0563u     0:o_1_7_2 = 559.9983m     0:o_1_7_3 = 559.9982m
 +    0:o_1_7_4 = 559.9983m     0:o_1_8_1 =   1.0549u     0:o_1_8_2 =   1.0492u
 +    0:o_1_8_3 =   1.0551u     0:o_1_8_4 =   1.0563u     0:o_1_9_1 =   1.0551u
 +    0:o_1_9_2 =   1.0484u     0:o_1_9_3 =   1.0472u     0:o_1_9_4 =   1.0551u
 +    0:o_2_10_1=   1.0551u     0:o_2_10_2=   1.0492u     0:o_2_10_3=   1.0862u
 +    0:o_2_10_4=   1.0484u     0:o_2_11_1=   1.0507u     0:o_2_11_2=   1.0507u
 +    0:o_2_11_3=   1.0838u     0:o_2_11_4=   1.0560u     0:o_2_12_1=   1.0563u
 +    0:o_2_12_2=   1.0618u     0:o_2_12_3=   1.0416u     0:o_2_12_4=   1.0416u
 +    0:o_2_13_1=   1.0563u     0:o_2_13_2=   1.0563u     0:o_2_13_3=   1.0549u
 +    0:o_2_13_4=   1.0551u     0:o_2_14_1=   1.0507u     0:o_2_14_2=   1.0549u
 +    0:o_2_14_3= 559.9983m     0:o_2_14_4=   1.0551u     0:o_2_15_1=   1.0551u
 +    0:o_2_15_2=   1.0551u     0:o_2_15_3=   1.0541u     0:o_2_15_4=   1.0645u
 +    0:o_2_16_1=   1.0541u     0:o_2_16_2=   1.0563u     0:o_2_16_3=   1.0749u
 +    0:o_2_16_4=   1.0507u     0:o_2_17_1=   1.0507u     0:o_2_17_2= 559.9983m
 +    0:o_2_17_3= 559.9982m     0:o_2_17_4=   1.0633u     0:o_2_18_1=   1.0428u
 +    0:o_2_18_2= 559.9983m     0:o_2_18_3=   1.0838u     0:o_2_18_4=   1.0563u
 +    0:o_2_19_1=   1.0563u     0:o_2_19_2=   1.0713u     0:o_2_19_3=   1.0428u
 +    0:o_2_19_4=   1.0416u     0:o_2_1_1 = 559.9983m     0:o_2_1_2 =   1.0541u
 +    0:o_2_1_3 = 559.9982m     0:o_2_1_4 = 559.9983m     0:o_2_20_1= 559.9982m
 +    0:o_2_20_2= 559.9983m     0:o_2_20_3=   1.0553u     0:o_2_20_4= 559.9983m
 +    0:o_2_21_1=   1.0551u     0:o_2_21_2=   1.0713u     0:o_2_21_3=   1.0541u
 +    0:o_2_21_4=   1.0484u     0:o_2_22_1=   1.0551u     0:o_2_22_2=   1.0483u
 +    0:o_2_22_3=   1.0428u     0:o_2_22_4=   1.0492u     0:o_2_23_1=   1.0497u
 +    0:o_2_23_2=   1.0560u     0:o_2_23_3=   1.0700u     0:o_2_23_4=   1.0560u
 +    0:o_2_24_1=   1.0507u     0:o_2_24_2=   1.0492u     0:o_2_24_3=   1.0749u
 +    0:o_2_24_4=   1.0654u     0:o_2_25_1=   1.0703u     0:o_2_25_2=   1.0492u
 +    0:o_2_25_3=   1.0643u     0:o_2_25_4=   1.0492u     0:o_2_26_1=   1.0552u
 +    0:o_2_26_2=   1.0549u     0:o_2_26_3=   1.0862u     0:o_2_26_4=   1.0563u
 +    0:o_2_27_1= 559.9983m     0:o_2_27_2= 559.9983m     0:o_2_27_3=   1.0610u
 +    0:o_2_27_4= 559.9983m     0:o_2_28_1=   1.0562u     0:o_2_28_2=   1.0507u
 +    0:o_2_28_3=   1.0492u     0:o_2_28_4= 559.9983m     0:o_2_29_1=   1.0382u
 +    0:o_2_29_2=   1.0583u     0:o_2_29_3=   1.0448u     0:o_2_29_4=   1.0434u
 +    0:o_2_2_1 =   1.0562u     0:o_2_2_2 =   1.0549u     0:o_2_2_3 =   1.0562u
 +    0:o_2_2_4 =   1.0560u     0:o_2_30_1= 559.9983m     0:o_2_30_2=   1.0551u
 +    0:o_2_30_3= 559.9983m     0:o_2_30_4=   1.0507u     0:o_2_31_1= 559.9982m
 +    0:o_2_31_2=   1.0608u     0:o_2_31_3= 559.9983m     0:o_2_31_4=   1.0413u
 +    0:o_2_32_1=   1.0563u     0:o_2_32_2=   1.0549u     0:o_2_32_3=   1.0551u
 +    0:o_2_32_4=   1.0714u     0:o_2_3_1 =   1.0552u     0:o_2_3_2 =   1.0562u
 +    0:o_2_3_3 = 559.9982m     0:o_2_3_4 =   1.0710u     0:o_2_4_1 =   1.0541u
 +    0:o_2_4_2 =   1.0541u     0:o_2_4_3 =   1.0416u     0:o_2_4_4 = 559.9983m
 +    0:o_2_5_1 =   1.0416u     0:o_2_5_2 = 559.9983m     0:o_2_5_3 =   1.0541u
 +    0:o_2_5_4 = 559.9982m     0:o_2_6_1 =   1.0492u     0:o_2_6_2 =   1.0541u
 +    0:o_2_6_3 =   1.0564u     0:o_2_6_4 =   1.0492u     0:o_2_7_1 = 559.9983m
 +    0:o_2_7_2 =   1.0564u     0:o_2_7_3 =   1.0549u     0:o_2_7_4 =   1.0507u
 +    0:o_2_8_1 =   1.0549u     0:o_2_8_2 =   1.0492u     0:o_2_8_3 =   1.0484u
 +    0:o_2_8_4 =   1.0563u     0:o_2_9_1 =   1.0484u     0:o_2_9_2 =   1.0551u
 +    0:o_2_9_3 =   1.0472u     0:o_2_9_4 =   1.0551u     0:o_3_10_1= 559.9982m
 +    0:o_3_10_2=   1.0492u     0:o_3_10_3= 559.9982m     0:o_3_10_4= 559.9982m
 +    0:o_3_11_1=   1.0507u     0:o_3_11_2=   1.0507u     0:o_3_11_3=   1.0838u
 +    0:o_3_11_4=   1.0549u     0:o_3_12_1= 559.9982m     0:o_3_12_2= 559.9982m
 +    0:o_3_12_3=   1.0507u     0:o_3_12_4=   1.0416u     0:o_3_13_1=   1.0563u
 +    0:o_3_13_2=   1.0563u     0:o_3_13_3=   1.0549u     0:o_3_13_4=   1.0551u
 +    0:o_3_14_1=   1.0416u     0:o_3_14_2=   1.0549u     0:o_3_14_3=   1.0563u
 +    0:o_3_14_4=   1.0484u     0:o_3_15_1=   1.0551u     0:o_3_15_2=   1.0551u
 +    0:o_3_15_3=   1.0541u     0:o_3_15_4=   1.0564u     0:o_3_16_1=   1.0460u
 +    0:o_3_16_2=   1.0563u     0:o_3_16_3=   1.0567u     0:o_3_16_4=   1.0416u
 +    0:o_3_17_1= 559.9983m     0:o_3_17_2= 559.9983m     0:o_3_17_3= 559.9982m
 +    0:o_3_17_4= 559.9982m     0:o_3_18_1= 559.9983m     0:o_3_18_2=   1.0552u
 +    0:o_3_18_3=   1.0704u     0:o_3_18_4= 559.9983m     0:o_3_19_1=   1.0564u
 +    0:o_3_19_2=   1.0713u     0:o_3_19_3=   1.0428u     0:o_3_19_4=   1.0507u
 +    0:o_3_1_1 = 559.9983m     0:o_3_1_2 =   1.0541u     0:o_3_1_3 =   1.0551u
 +    0:o_3_1_4 = 559.9982m     0:o_3_20_1= 559.9982m     0:o_3_20_2= 559.9983m
 +    0:o_3_20_3=   1.0564u     0:o_3_20_4= 559.9982m     0:o_3_21_1=   1.0551u
 +    0:o_3_21_2=   1.0713u     0:o_3_21_3=   1.0541u     0:o_3_21_4=   1.0551u
 +    0:o_3_22_1=   1.0551u     0:o_3_22_2= 559.9982m     0:o_3_22_3=   1.0492u
 +    0:o_3_22_4= 559.9983m     0:o_3_23_1=   1.0497u     0:o_3_23_2=   1.0560u
 +    0:o_3_23_3=   1.0710u     0:o_3_23_4=   1.0549u     0:o_3_24_1=   1.0507u
 +    0:o_3_24_2=   1.0492u     0:o_3_24_3=   1.0749u     0:o_3_24_4=   1.0654u
 +    0:o_3_25_1=   1.0703u     0:o_3_25_2=   1.0492u     0:o_3_25_3=   1.0654u
 +    0:o_3_25_4=   1.0492u     0:o_3_26_1=   1.0541u     0:o_3_26_2=   1.0549u
 +    0:o_3_26_3=   1.0862u     0:o_3_26_4=   1.0564u     0:o_3_27_1= 559.9983m
 +    0:o_3_27_2= 559.9983m     0:o_3_27_3= 559.9982m     0:o_3_27_4=   1.0541u
 +    0:o_3_28_1= 559.9982m     0:o_3_28_2=   1.0507u     0:o_3_28_3=   1.0492u
 +    0:o_3_28_4=   1.0541u     0:o_3_29_1=   1.0382u     0:o_3_29_2=   1.0583u
 +    0:o_3_29_3=   1.0436u     0:o_3_29_4=   1.0355u     0:o_3_2_1 =   1.0562u
 +    0:o_3_2_2 =   1.0549u     0:o_3_2_3 =   1.0562u     0:o_3_2_4 =   1.0552u
 +    0:o_3_30_1=   1.0428u     0:o_3_30_2=   1.0551u     0:o_3_30_3= 559.9983m
 +    0:o_3_30_4=   1.0507u     0:o_3_31_1= 559.9982m     0:o_3_31_2=   1.0608u
 +    0:o_3_31_3=   1.0461u     0:o_3_31_4= 559.9983m     0:o_3_32_1=   1.0563u
 +    0:o_3_32_2=   1.0485u     0:o_3_32_3=   1.0551u     0:o_3_32_4=   1.0714u
 +    0:o_3_3_1 =   1.0552u     0:o_3_3_2 = 559.9982m     0:o_3_3_3 =   1.0549u
 +    0:o_3_3_4 =   1.0710u     0:o_3_4_1 = 559.9983m     0:o_3_4_2 =   1.0541u
 +    0:o_3_4_3 = 559.9983m     0:o_3_4_4 =   1.0563u     0:o_3_5_1 = 559.9983m
 +    0:o_3_5_2 =   1.0507u     0:o_3_5_3 =   1.0541u     0:o_3_5_4 = 559.9982m
 +    0:o_3_6_1 =   1.0492u     0:o_3_6_2 =   1.0541u     0:o_3_6_3 =   1.0564u
 +    0:o_3_6_4 =   1.0492u     0:o_3_7_1 =   1.0564u     0:o_3_7_2 =   1.0563u
 +    0:o_3_7_3 =   1.0549u     0:o_3_7_4 = 559.9983m     0:o_3_8_1 =   1.0560u
 +    0:o_3_8_2 =   1.0492u     0:o_3_8_3 =   1.0551u     0:o_3_8_4 =   1.0563u
 +    0:o_3_9_1 =   1.0551u     0:o_3_9_2 =   1.0551u     0:o_3_9_3 =   1.0472u
 +    0:o_3_9_4 =   1.0551u     0:o_4_10_1=   1.0551u     0:o_4_10_2=   1.0492u
 +    0:o_4_10_3= 559.9982m     0:o_4_10_4=   1.0551u     0:o_4_11_1=   1.0507u
 +    0:o_4_11_2=   1.0507u     0:o_4_11_3=   1.0838u     0:o_4_11_4=   1.0560u
 +    0:o_4_12_1=   1.0563u     0:o_4_12_2=   1.0618u     0:o_4_12_3= 559.9983m
 +    0:o_4_12_4= 559.9983m     0:o_4_13_1=   1.0563u     0:o_4_13_2=   1.0563u
 +    0:o_4_13_3=   1.0549u     0:o_4_13_4=   1.0551u     0:o_4_14_1=   1.0507u
 +    0:o_4_14_2= 559.9982m     0:o_4_14_3=   1.0564u     0:o_4_14_4= 559.9982m
 +    0:o_4_15_1=   1.0551u     0:o_4_15_2=   1.0551u     0:o_4_15_3=   1.0541u
 +    0:o_4_15_4=   1.0564u     0:o_4_16_1=   1.0541u     0:o_4_16_2=   1.0564u
 +    0:o_4_16_3=   1.0567u     0:o_4_16_4=   1.0416u     0:o_4_17_1=   1.0507u
 +    0:o_4_17_2= 559.9983m     0:o_4_17_3= 559.9982m     0:o_4_17_4= 559.9982m
 +    0:o_4_18_1=   1.0492u     0:o_4_18_2=   1.0484u     0:o_4_18_3=   1.0704u
 +    0:o_4_18_4= 559.9982m     0:o_4_19_1=   1.0563u     0:o_4_19_2=   1.0713u
 +    0:o_4_19_3=   1.0428u     0:o_4_19_4=   1.0416u     0:o_4_1_1 =   1.0492u
 +    0:o_4_1_2 = 559.9983m     0:o_4_1_3 =   1.0551u     0:o_4_1_4 = 559.9983m
 +    0:o_4_20_1=   1.0549u     0:o_4_20_2=   1.0416u     0:o_4_20_3=   1.0564u
 +    0:o_4_20_4=   1.0564u     0:o_4_21_1=   1.0551u     0:o_4_21_2=   1.0713u
 +    0:o_4_21_3=   1.0541u     0:o_4_21_4=   1.0484u     0:o_4_22_1=   1.0551u
 +    0:o_4_22_2= 559.9983m     0:o_4_22_3= 559.9983m     0:o_4_22_4=   1.0492u
 +    0:o_4_23_1=   1.0497u     0:o_4_23_2=   1.0560u     0:o_4_23_3=   1.0710u
 +    0:o_4_23_4=   1.0549u     0:o_4_24_1=   1.0507u     0:o_4_24_2=   1.0428u
 +    0:o_4_24_3=   1.0749u     0:o_4_24_4=   1.0643u     0:o_4_25_1=   1.0703u
 +    0:o_4_25_2=   1.0492u     0:o_4_25_3=   1.0654u     0:o_4_25_4=   1.0492u
 +    0:o_4_26_1=   1.0460u     0:o_4_26_2=   1.0549u     0:o_4_26_3=   1.0862u
 +    0:o_4_26_4=   1.0563u     0:o_4_27_1=   1.0436u     0:o_4_27_2= 559.9983m
 +    0:o_4_27_3= 559.9982m     0:o_4_27_4=   1.0541u     0:o_4_28_1= 559.9982m
 +    0:o_4_28_2= 559.9983m     0:o_4_28_3=   1.0492u     0:o_4_28_4= 559.9983m
 +    0:o_4_29_1=   1.0461u     0:o_4_29_2=   1.0597u     0:o_4_29_3=   1.0436u
 +    0:o_4_29_4=   1.0355u     0:o_4_2_1 =   1.0549u     0:o_4_2_2 =   1.0560u
 +    0:o_4_2_3 =   1.0562u     0:o_4_2_4 =   1.0560u     0:o_4_30_1= 559.9983m
 +    0:o_4_30_2=   1.0551u     0:o_4_30_3= 559.9983m     0:o_4_30_4=   1.0507u
 +    0:o_4_31_1= 559.9982m     0:o_4_31_2= 559.9983m     0:o_4_31_3=   1.0461u
 +    0:o_4_31_4= 559.9983m     0:o_4_32_1=   1.0563u     0:o_4_32_2=   1.0549u
 +    0:o_4_32_3=   1.0551u     0:o_4_32_4=   1.0714u     0:o_4_3_1 =   1.0541u
 +    0:o_4_3_2 =   1.0562u     0:o_4_3_3 = 559.9982m     0:o_4_3_4 =   1.0700u
 +    0:o_4_4_1 =   1.0541u     0:o_4_4_2 =   1.0541u     0:o_4_4_3 = 559.9983m
 +    0:o_4_4_4 = 559.9983m     0:o_4_5_1 = 559.9983m     0:o_4_5_2 =   1.0507u
 +    0:o_4_5_3 = 559.9982m     0:o_4_5_4 =   1.0610u     0:o_4_6_1 =   1.0492u
 +    0:o_4_6_2 =   1.0541u     0:o_4_6_3 =   1.0564u     0:o_4_6_4 =   1.0492u
 +    0:o_4_7_1 = 559.9982m     0:o_4_7_2 =   1.0563u     0:o_4_7_3 =   1.0549u
 +    0:o_4_7_4 =   1.0507u     0:o_4_8_1 =   1.0549u     0:o_4_8_2 =   1.0492u
 +    0:o_4_8_3 =   1.0551u     0:o_4_8_4 =   1.0563u     0:o_4_9_1 =   1.0552u
 +    0:o_4_9_2 =   1.0551u     0:o_4_9_3 =   1.0472u     0:o_4_9_4 =   1.0551u
 +    0:out_1[0]=   1.1996u     0:out_1[10=   1.2172u     0:out_1[11=   1.1360u
 +    0:out_1[12=   1.1360u     0:out_1[1]=   1.1533u     0:out_1[2]=   1.2172u
 +    0:out_1[3]=   1.1534u     0:out_1[4]=   1.2172u     0:out_1[5]=   1.1534u
 +    0:out_1[6]=   1.2171u     0:out_1[7]=   1.1534u     0:out_1[8]=   1.2172u
 +    0:out_1[9]=   1.1534u     0:out_2[0]=   1.1996u     0:out_2[10=   1.2172u
 +    0:out_2[11=   1.1360u     0:out_2[12=   1.1360u     0:out_2[1]=   1.1534u
 +    0:out_2[2]=   1.2171u     0:out_2[3]=   1.1533u     0:out_2[4]=   1.2172u
 +    0:out_2[5]=   1.1533u     0:out_2[6]=   1.2172u     0:out_2[7]=   1.1534u
 +    0:out_2[8]=   1.2172u     0:out_2[9]=   1.1534u     0:out_3[0]=   1.1996u
 +    0:out_3[10=   1.2172u     0:out_3[11=   1.1360u     0:out_3[12=   1.1360u
 +    0:out_3[1]=   1.1534u     0:out_3[2]=   1.2172u     0:out_3[3]=   1.1533u
 +    0:out_3[4]=   1.2171u     0:out_3[5]=   1.1533u     0:out_3[6]=   1.2172u
 +    0:out_3[7]=   1.1534u     0:out_3[8]=   1.2172u     0:out_3[9]=   1.1534u
 +    0:out_4[0]=   1.1996u     0:out_4[10=   1.2172u     0:out_4[11=   1.1360u
 +    0:out_4[12=   1.1360u     0:out_4[1]=   1.1533u     0:out_4[2]=   1.2172u
 +    0:out_4[3]=   1.1533u     0:out_4[4]=   1.2171u     0:out_4[5]=   1.1533u
 +    0:out_4[6]=   1.2172u     0:out_4[7]=   1.1534u     0:out_4[8]=   1.2172u
 +    0:out_4[9]=   1.1534u     0:out_vali=   1.1360u     0:partial_=   4.6485u
 +    0:partial_=   4.4886u     0:partial_= 559.9981m     0:partial_= 559.9981m
 +    0:partial_=   1.1807u     0:partial_=   1.1807u     0:partial_=   1.1807u
 +    0:partial_=   1.1807u     0:partial_=   1.1595u     0:partial_=   1.1595u
 +    0:partial_=   1.1595u     0:partial_=   1.1595u     0:partial_=   1.1613u
 +    0:partial_=   1.1613u     0:partial_=   1.1613u     0:partial_=   1.1613u
 +    0:partial_=   4.6540u     0:partial_=   4.6545u     0:partial_= 559.9981m
 +    0:partial_= 559.9981m     0:partial_= 559.9980m     0:partial_=   4.7045u
 +    0:partial_=   4.5432u     0:partial_= 559.9925m     0:partial_=   4.6618u
 +    0:partial_= 559.9926m     0:partial_=   4.6612u     0:partial_=   4.6619u
 +    0:partial_=   4.7039u     0:partial_= 559.9925m     0:partial_= 559.9925m
 +    0:partial_= 559.9980m     0:partial_=   4.5006u     0:partial_=   4.5011u
 +    0:partial_= 559.9981m     0:partial_= 559.9926m     0:partial_=   1.1792u
 +    0:partial_= 559.9923m     0:partial_= 559.9922m     0:partial_= 559.9923m
 +    0:partial_= 559.9971m     0:partial_=   6.8508u     0:partial_=   6.8505u
 +    0:partial_=   6.8508u     0:partial_=   2.3620u     0:partial_=   2.3618u
 +    0:partial_=   2.3620u     0:partial_=   2.3618u     0:partial_=   1.1595u
 +    0:partial_=   1.1595u     0:partial_=   1.1595u     0:partial_=   1.1595u
 +    0:rst_n   = 700.0000m     0:vdd     = 560.0000m     0:vss     =   0.     
 +    0:w_1_10_1= 999.9996m     0:w_1_10_1=  67.9706f     0:w_1_10_2=  63.3449f
 +    0:w_1_10_2= 999.9996m     0:w_1_10_3=  63.3449f     0:w_1_10_3= 999.9996m
 +    0:w_1_10_4= 999.9996m     0:w_1_10_4=  67.9706f     0:w_1_11_1= 999.9996m
 +    0:w_1_11_1=  67.2834f     0:w_1_11_2= 999.9996m     0:w_1_11_2=  67.2834f
 +    0:w_1_11_3=  63.3449f     0:w_1_11_3= 999.9996m     0:w_1_11_4= 999.9996m
 +    0:w_1_11_4=  67.2834f     0:w_1_12_1= 999.9996m     0:w_1_12_1=  67.9706f
 +    0:w_1_12_2= 999.9996m     0:w_1_12_2=  67.9706f     0:w_1_12_3= 999.9996m
 +    0:w_1_12_3=  67.9706f     0:w_1_12_4= 999.9996m     0:w_1_12_4=  67.9706f
 +    0:w_1_13_1= 999.9996m     0:w_1_13_1=  67.2834f     0:w_1_13_2=  63.3449f
 +    0:w_1_13_2= 999.9996m     0:w_1_13_3=  63.3449f     0:w_1_13_3= 999.9996m
 +    0:w_1_13_4=  63.3449f     0:w_1_13_4= 999.9996m     0:w_1_14_1= 999.9996m
 +    0:w_1_14_1=  67.9706f     0:w_1_14_2=  63.3449f     0:w_1_14_2= 999.9996m
 +    0:w_1_14_3=  63.3449f     0:w_1_14_3= 999.9996m     0:w_1_14_4= 999.9996m
 +    0:w_1_14_4=  67.9706f     0:w_1_15_1=  63.3449f     0:w_1_15_1= 999.9996m
 +    0:w_1_15_2=  63.3449f     0:w_1_15_2= 999.9996m     0:w_1_15_3=  63.3449f
 +    0:w_1_15_3= 999.9996m     0:w_1_15_4=  63.3449f     0:w_1_15_4= 999.9996m
 +    0:w_1_16_1= 999.9996m     0:w_1_16_1=  67.2834f     0:w_1_16_2=  63.3449f
 +    0:w_1_16_2= 999.9996m     0:w_1_16_3=  63.3449f     0:w_1_16_3= 999.9996m
 +    0:w_1_16_4=  63.3449f     0:w_1_16_4= 999.9996m     0:w_1_17_1= 999.9996m
 +    0:w_1_17_1=  67.9706f     0:w_1_17_2=  63.3449f     0:w_1_17_2= 999.9996m
 +    0:w_1_17_3=  63.3449f     0:w_1_17_3= 999.9996m     0:w_1_17_4= 999.9996m
 +    0:w_1_17_4=  67.9706f     0:w_1_18_1= 999.9996m     0:w_1_18_1=  67.9706f
 +    0:w_1_18_2= 999.9996m     0:w_1_18_2=  67.9706f     0:w_1_18_3= 999.9996m
 +    0:w_1_18_3=  67.9706f     0:w_1_18_4=  63.3449f     0:w_1_18_4= 999.9996m
 +    0:w_1_19_1= 999.9996m     0:w_1_19_1=  67.2834f     0:w_1_19_2= 999.9996m
 +    0:w_1_19_2=  67.2834f     0:w_1_19_3= 999.9996m     0:w_1_19_3=  67.2834f
 +    0:w_1_19_4= 999.9996m     0:w_1_19_4=  67.2834f     0:w_1_1_1 = 999.9996m
 +    0:w_1_1_1_=  67.9706f     0:w_1_1_2 = 999.9996m     0:w_1_1_2_=  67.9706f
 +    0:w_1_1_3 = 999.9996m     0:w_1_1_3_=  67.9706f     0:w_1_1_4 = 999.9996m
 +    0:w_1_1_4_=  67.9706f     0:w_1_20_1=  63.3449f     0:w_1_20_1= 999.9996m
 +    0:w_1_20_2=  63.3449f     0:w_1_20_2= 999.9996m     0:w_1_20_3= 999.9996m
 +    0:w_1_20_3=  67.9706f     0:w_1_20_4=  63.3449f     0:w_1_20_4= 999.9996m
 +    0:w_1_21_1= 999.9996m     0:w_1_21_1=  67.2834f     0:w_1_21_2= 999.9996m
 +    0:w_1_21_2=  67.2834f     0:w_1_21_3= 999.9996m     0:w_1_21_3=  67.2834f
 +    0:w_1_21_4= 999.9996m     0:w_1_21_4=  67.2834f     0:w_1_22_1=  63.3449f
 +    0:w_1_22_1= 999.9996m     0:w_1_22_2= 999.9996m     0:w_1_22_2=  67.9706f
 +    0:w_1_22_3= 999.9996m     0:w_1_22_3=  67.9706f     0:w_1_22_4=  63.3449f
 +    0:w_1_22_4= 999.9996m     0:w_1_23_1= 999.9996m     0:w_1_23_1=  67.2834f
 +    0:w_1_23_2=  63.3449f     0:w_1_23_2= 999.9996m     0:w_1_23_3= 999.9996m
 +    0:w_1_23_3=  67.2834f     0:w_1_23_4= 999.9996m     0:w_1_23_4=  67.2834f
 +    0:w_1_24_1=  63.3449f     0:w_1_24_1= 999.9996m     0:w_1_24_2= 999.9996m
 +    0:w_1_24_2=  67.2834f     0:w_1_24_3=  63.3449f     0:w_1_24_3= 999.9996m
 +    0:w_1_24_4= 999.9996m     0:w_1_24_4=  67.2834f     0:w_1_25_1= 999.9996m
 +    0:w_1_25_1=  67.2834f     0:w_1_25_2= 999.9996m     0:w_1_25_2=  67.2834f
 +    0:w_1_25_3= 999.9996m     0:w_1_25_3=  67.2834f     0:w_1_25_4= 999.9996m
 +    0:w_1_25_4=  67.2834f     0:w_1_26_1= 999.9996m     0:w_1_26_1=  67.2834f
 +    0:w_1_26_2=  63.3449f     0:w_1_26_2= 999.9996m     0:w_1_26_3= 999.9996m
 +    0:w_1_26_3=  67.2834f     0:w_1_26_4=  63.3449f     0:w_1_26_4= 999.9996m
 +    0:w_1_27_1= 999.9996m     0:w_1_27_1=  67.9706f     0:w_1_27_2= 999.9996m
 +    0:w_1_27_2=  67.9706f     0:w_1_27_3= 999.9996m     0:w_1_27_3=  67.9706f
 +    0:w_1_27_4=  63.3449f     0:w_1_27_4= 999.9996m     0:w_1_28_1=  63.3449f
 +    0:w_1_28_1= 999.9996m     0:w_1_28_2=  63.3449f     0:w_1_28_2= 999.9996m
 +    0:w_1_28_3= 999.9996m     0:w_1_28_3=  67.9706f     0:w_1_28_4= 999.9996m
 +    0:w_1_28_4=  67.9706f     0:w_1_29_1=  63.3449f     0:w_1_29_1= 999.9996m
 +    0:w_1_29_2= 999.9996m     0:w_1_29_2=  67.2834f     0:w_1_29_3= 999.9996m
 +    0:w_1_29_3=  67.2834f     0:w_1_29_4=  63.3449f     0:w_1_29_4= 999.9996m
 +    0:w_1_2_1 = 999.9996m     0:w_1_2_1_=  67.2834f     0:w_1_2_2 = 999.9996m
 +    0:w_1_2_2_=  67.2834f     0:w_1_2_3 = 999.9996m     0:w_1_2_3_=  67.2834f
 +    0:w_1_2_4 = 999.9996m     0:w_1_2_4_=  67.2834f     0:w_1_30_1=  63.3449f
 +    0:w_1_30_1= 999.9996m     0:w_1_30_2=  63.3449f     0:w_1_30_2= 999.9996m
 +    0:w_1_30_3= 999.9996m     0:w_1_30_3=  67.9706f     0:w_1_30_4=  63.3449f
 +    0:w_1_30_4= 999.9996m     0:w_1_31_1= 999.9996m     0:w_1_31_1=  67.9706f
 +    0:w_1_31_2= 999.9996m     0:w_1_31_2=  67.9706f     0:w_1_31_3= 999.9996m
 +    0:w_1_31_3=  67.9706f     0:w_1_31_4=  63.3449f     0:w_1_31_4= 999.9996m
 +    0:w_1_32_1=  63.3449f     0:w_1_32_1= 999.9996m     0:w_1_32_2= 999.9996m
 +    0:w_1_32_2=  67.2834f     0:w_1_32_3= 999.9996m     0:w_1_32_3=  67.2834f
 +    0:w_1_32_4= 999.9996m     0:w_1_32_4=  67.2834f     0:w_1_3_1 =  63.3449f
 +    0:w_1_3_1_= 999.9996m     0:w_1_3_2 =  63.3449f     0:w_1_3_2_= 999.9996m
 +    0:w_1_3_3 =  63.3449f     0:w_1_3_3_= 999.9996m     0:w_1_3_4 =  63.3449f
 +    0:w_1_3_4_= 999.9996m     0:w_1_4_1 =  63.3449f     0:w_1_4_1_= 999.9996m
 +    0:w_1_4_2 = 999.9996m     0:w_1_4_2_=  67.9706f     0:w_1_4_3 =  63.3449f
 +    0:w_1_4_3_= 999.9996m     0:w_1_4_4 = 999.9996m     0:w_1_4_4_=  67.9706f
 +    0:w_1_5_1 =  63.3449f     0:w_1_5_1_= 999.9996m     0:w_1_5_2 =  63.3449f
 +    0:w_1_5_2_= 999.9996m     0:w_1_5_3 = 999.9996m     0:w_1_5_3_=  67.9706f
 +    0:w_1_5_4 =  63.3449f     0:w_1_5_4_= 999.9996m     0:w_1_6_1 =  63.3449f
 +    0:w_1_6_1_= 999.9996m     0:w_1_6_2 =  63.3449f     0:w_1_6_2_= 999.9996m
 +    0:w_1_6_3 = 999.9996m     0:w_1_6_3_=  67.2834f     0:w_1_6_4 =  63.3449f
 +    0:w_1_6_4_= 999.9996m     0:w_1_7_1 =  63.3449f     0:w_1_7_1_= 999.9996m
 +    0:w_1_7_2 = 999.9996m     0:w_1_7_2_=  67.9706f     0:w_1_7_3 = 999.9996m
 +    0:w_1_7_3_=  67.9706f     0:w_1_7_4 = 999.9996m     0:w_1_7_4_=  67.9706f
 +    0:w_1_8_1 = 999.9996m     0:w_1_8_1_=  67.2834f     0:w_1_8_2 = 999.9996m
 +    0:w_1_8_2_=  67.2834f     0:w_1_8_3 =  63.3449f     0:w_1_8_3_= 999.9996m
 +    0:w_1_8_4 =  63.3449f     0:w_1_8_4_= 999.9996m     0:w_1_9_1 = 999.9996m
 +    0:w_1_9_1_=  67.2834f     0:w_1_9_2 = 999.9996m     0:w_1_9_2_=  67.2834f
 +    0:w_1_9_3 =  63.3449f     0:w_1_9_3_= 999.9996m     0:w_1_9_4 = 999.9996m
 +    0:w_1_9_4_=  67.2834f     0:w_2_10_1=  63.3449f     0:w_2_10_1= 999.9996m
 +    0:w_2_10_2=  63.3449f     0:w_2_10_2= 999.9996m     0:w_2_10_3=  63.3449f
 +    0:w_2_10_3= 999.9996m     0:w_2_10_4=  63.3449f     0:w_2_10_4= 999.9996m
 +    0:w_2_11_1=  63.3449f     0:w_2_11_1= 999.9996m     0:w_2_11_2=  63.3449f
 +    0:w_2_11_2= 999.9996m     0:w_2_11_3= 999.9996m     0:w_2_11_3=  67.2834f
 +    0:w_2_11_4=  63.3449f     0:w_2_11_4= 999.9996m     0:w_2_12_1=  63.3449f
 +    0:w_2_12_1= 999.9996m     0:w_2_12_2=  63.3449f     0:w_2_12_2= 999.9996m
 +    0:w_2_12_3=  63.3449f     0:w_2_12_3= 999.9996m     0:w_2_12_4=  63.3449f
 +    0:w_2_12_4= 999.9996m     0:w_2_13_1=  63.3449f     0:w_2_13_1= 999.9996m
 +    0:w_2_13_2=  63.3449f     0:w_2_13_2= 999.9996m     0:w_2_13_3= 999.9996m
 +    0:w_2_13_3=  67.2834f     0:w_2_13_4= 999.9996m     0:w_2_13_4=  67.2834f
 +    0:w_2_14_1=  63.3449f     0:w_2_14_1= 999.9996m     0:w_2_14_2=  63.3449f
 +    0:w_2_14_2= 999.9996m     0:w_2_14_3= 999.9996m     0:w_2_14_3=  67.9706f
 +    0:w_2_14_4=  63.3449f     0:w_2_14_4= 999.9996m     0:w_2_15_1=  63.3449f
 +    0:w_2_15_1= 999.9996m     0:w_2_15_2=  63.3449f     0:w_2_15_2= 999.9996m
 +    0:w_2_15_3= 999.9996m     0:w_2_15_3=  67.2834f     0:w_2_15_4= 999.9996m
 +    0:w_2_15_4=  67.2834f     0:w_2_16_1=  63.3449f     0:w_2_16_1= 999.9996m
 +    0:w_2_16_2= 999.9996m     0:w_2_16_2=  67.2834f     0:w_2_16_3=  63.3449f
 +    0:w_2_16_3= 999.9996m     0:w_2_16_4= 999.9996m     0:w_2_16_4=  67.2834f
 +    0:w_2_17_1=  63.3449f     0:w_2_17_1= 999.9996m     0:w_2_17_2= 999.9996m
 +    0:w_2_17_2=  67.9706f     0:w_2_17_3= 999.9996m     0:w_2_17_3=  67.9706f
 +    0:w_2_17_4=  63.3449f     0:w_2_17_4= 999.9996m     0:w_2_18_1=  63.3449f
 +    0:w_2_18_1= 999.9996m     0:w_2_18_2= 999.9996m     0:w_2_18_2=  67.9706f
 +    0:w_2_18_3=  63.3449f     0:w_2_18_3= 999.9996m     0:w_2_18_4=  63.3449f
 +    0:w_2_18_4= 999.9996m     0:w_2_19_1= 999.9996m     0:w_2_19_1=  67.2834f
 +    0:w_2_19_2= 999.9996m     0:w_2_19_2=  67.2834f     0:w_2_19_3=  63.3449f
 +    0:w_2_19_3= 999.9996m     0:w_2_19_4= 999.9996m     0:w_2_19_4=  67.2834f
 +    0:w_2_1_1 = 999.9996m     0:w_2_1_1_=  67.9706f     0:w_2_1_2 =  63.3449f
 +    0:w_2_1_2_= 999.9996m     0:w_2_1_3 = 999.9996m     0:w_2_1_3_=  67.9706f
 +    0:w_2_1_4 = 999.9996m     0:w_2_1_4_=  67.9706f     0:w_2_20_1= 999.9996m
 +    0:w_2_20_1=  67.9706f     0:w_2_20_2= 999.9996m     0:w_2_20_2=  67.9706f
 +    0:w_2_20_3=  63.3449f     0:w_2_20_3= 999.9996m     0:w_2_20_4= 999.9996m
 +    0:w_2_20_4=  67.9706f     0:w_2_21_1=  63.3449f     0:w_2_21_1= 999.9996m
 +    0:w_2_21_2= 999.9996m     0:w_2_21_2=  67.2834f     0:w_2_21_3=  63.3449f
 +    0:w_2_21_3= 999.9996m     0:w_2_21_4= 999.9996m     0:w_2_21_4=  67.2834f
 +    0:w_2_22_1=  63.3449f     0:w_2_22_1= 999.9996m     0:w_2_22_2=  63.3449f
 +    0:w_2_22_2= 999.9996m     0:w_2_22_3=  63.3449f     0:w_2_22_3= 999.9996m
 +    0:w_2_22_4=  63.3449f     0:w_2_22_4= 999.9996m     0:w_2_23_1=  63.3449f
 +    0:w_2_23_1= 999.9996m     0:w_2_23_2= 999.9996m     0:w_2_23_2=  67.2834f
 +    0:w_2_23_3= 999.9996m     0:w_2_23_3=  67.2834f     0:w_2_23_4=  63.3449f
 +    0:w_2_23_4= 999.9996m     0:w_2_24_1=  63.3449f     0:w_2_24_1= 999.9996m
 +    0:w_2_24_2=  63.3449f     0:w_2_24_2= 999.9996m     0:w_2_24_3= 999.9996m
 +    0:w_2_24_3=  67.2834f     0:w_2_24_4= 999.9996m     0:w_2_24_4=  67.2834f
 +    0:w_2_25_1= 999.9996m     0:w_2_25_1=  67.2834f     0:w_2_25_2=  63.3449f
 +    0:w_2_25_2= 999.9996m     0:w_2_25_3=  63.3449f     0:w_2_25_3= 999.9996m
 +    0:w_2_25_4=  63.3449f     0:w_2_25_4= 999.9996m     0:w_2_26_1= 999.9996m
 +    0:w_2_26_1=  67.2834f     0:w_2_26_2=  63.3449f     0:w_2_26_2= 999.9996m
 +    0:w_2_26_3= 999.9996m     0:w_2_26_3=  67.2834f     0:w_2_26_4= 999.9996m
 +    0:w_2_26_4=  67.2834f     0:w_2_27_1= 999.9996m     0:w_2_27_1=  67.9706f
 +    0:w_2_27_2= 999.9996m     0:w_2_27_2=  67.9706f     0:w_2_27_3=  63.3449f
 +    0:w_2_27_3= 999.9996m     0:w_2_27_4= 999.9996m     0:w_2_27_4=  67.9706f
 +    0:w_2_28_1=  63.3449f     0:w_2_28_1= 999.9996m     0:w_2_28_2=  63.3449f
 +    0:w_2_28_2= 999.9996m     0:w_2_28_3=  63.3449f     0:w_2_28_3= 999.9996m
 +    0:w_2_28_4= 999.9996m     0:w_2_28_4=  67.9706f     0:w_2_29_1=  63.3449f
 +    0:w_2_29_1= 999.9996m     0:w_2_29_2= 999.9996m     0:w_2_29_2=  67.2834f
 +    0:w_2_29_3=  63.3449f     0:w_2_29_3= 999.9996m     0:w_2_29_4=  63.3449f
 +    0:w_2_29_4= 999.9996m     0:w_2_2_1 = 999.9996m     0:w_2_2_1_=  67.2834f
 +    0:w_2_2_2 =  63.3449f     0:w_2_2_2_= 999.9996m     0:w_2_2_3 =  63.3449f
 +    0:w_2_2_3_= 999.9996m     0:w_2_2_4 =  63.3449f     0:w_2_2_4_= 999.9996m
 +    0:w_2_30_1= 999.9996m     0:w_2_30_1=  67.9706f     0:w_2_30_2=  63.3449f
 +    0:w_2_30_2= 999.9996m     0:w_2_30_3= 999.9996m     0:w_2_30_3=  67.9706f
 +    0:w_2_30_4=  63.3449f     0:w_2_30_4= 999.9996m     0:w_2_31_1= 999.9996m
 +    0:w_2_31_1=  67.9706f     0:w_2_31_2=  63.3449f     0:w_2_31_2= 999.9996m
 +    0:w_2_31_3= 999.9996m     0:w_2_31_3=  67.9706f     0:w_2_31_4=  63.3449f
 +    0:w_2_31_4= 999.9996m     0:w_2_32_1=  63.3449f     0:w_2_32_1= 999.9996m
 +    0:w_2_32_2= 999.9996m     0:w_2_32_2=  67.2834f     0:w_2_32_3=  63.3449f
 +    0:w_2_32_3= 999.9996m     0:w_2_32_4= 999.9996m     0:w_2_32_4=  67.2834f
 +    0:w_2_3_1 =  63.3449f     0:w_2_3_1_= 999.9996m     0:w_2_3_2 =  63.3449f
 +    0:w_2_3_2_= 999.9996m     0:w_2_3_3 = 999.9996m     0:w_2_3_3_=  67.9706f
 +    0:w_2_3_4 =  63.3449f     0:w_2_3_4_= 999.9996m     0:w_2_4_1 =  63.3449f
 +    0:w_2_4_1_= 999.9996m     0:w_2_4_2 =  63.3449f     0:w_2_4_2_= 999.9996m
 +    0:w_2_4_3 =  63.3449f     0:w_2_4_3_= 999.9996m     0:w_2_4_4 = 999.9996m
 +    0:w_2_4_4_=  67.9706f     0:w_2_5_1 =  63.3449f     0:w_2_5_1_= 999.9996m
 +    0:w_2_5_2 = 999.9996m     0:w_2_5_2_=  67.9706f     0:w_2_5_3 =  63.3449f
 +    0:w_2_5_3_= 999.9996m     0:w_2_5_4 = 999.9996m     0:w_2_5_4_=  67.9706f
 +    0:w_2_6_1 =  63.3449f     0:w_2_6_1_= 999.9996m     0:w_2_6_2 =  63.3449f
 +    0:w_2_6_2_= 999.9996m     0:w_2_6_3 =  63.3449f     0:w_2_6_3_= 999.9996m
 +    0:w_2_6_4 = 999.9996m     0:w_2_6_4_=  67.2834f     0:w_2_7_1 = 999.9996m
 +    0:w_2_7_1_=  67.9706f     0:w_2_7_2 =  63.3449f     0:w_2_7_2_= 999.9996m
 +    0:w_2_7_3 =  63.3449f     0:w_2_7_3_= 999.9996m     0:w_2_7_4 =  63.3449f
 +    0:w_2_7_4_= 999.9996m     0:w_2_8_1 = 999.9996m     0:w_2_8_1_=  67.2834f
 +    0:w_2_8_2 =  63.3449f     0:w_2_8_2_= 999.9996m     0:w_2_8_3 =  63.3449f
 +    0:w_2_8_3_= 999.9996m     0:w_2_8_4 = 999.9996m     0:w_2_8_4_=  67.2834f
 +    0:w_2_9_1 =  63.3449f     0:w_2_9_1_= 999.9996m     0:w_2_9_2 = 999.9996m
 +    0:w_2_9_2_=  67.2834f     0:w_2_9_3 =  63.3449f     0:w_2_9_3_= 999.9996m
 +    0:w_2_9_4 = 999.9996m     0:w_2_9_4_=  67.2834f     0:w_3_10_1= 999.9996m
 +    0:w_3_10_1=  67.9706f     0:w_3_10_2=  63.3449f     0:w_3_10_2= 999.9996m
 +    0:w_3_10_3= 999.9996m     0:w_3_10_3=  67.9706f     0:w_3_10_4= 999.9996m
 +    0:w_3_10_4=  67.9706f     0:w_3_11_1=  63.3449f     0:w_3_11_1= 999.9996m
 +    0:w_3_11_2=  63.3449f     0:w_3_11_2= 999.9996m     0:w_3_11_3= 999.9996m
 +    0:w_3_11_3=  67.2834f     0:w_3_11_4= 999.9996m     0:w_3_11_4=  67.2834f
 +    0:w_3_12_1= 999.9996m     0:w_3_12_1=  67.9706f     0:w_3_12_2= 999.9996m
 +    0:w_3_12_2=  67.9706f     0:w_3_12_3=  63.3449f     0:w_3_12_3= 999.9996m
 +    0:w_3_12_4=  63.3449f     0:w_3_12_4= 999.9996m     0:w_3_13_1= 999.9996m
 +    0:w_3_13_1=  67.2834f     0:w_3_13_2= 999.9996m     0:w_3_13_2=  67.2834f
 +    0:w_3_13_3= 999.9996m     0:w_3_13_3=  67.2834f     0:w_3_13_4=  63.3449f
 +    0:w_3_13_4= 999.9996m     0:w_3_14_1=  63.3449f     0:w_3_14_1= 999.9996m
 +    0:w_3_14_2=  63.3449f     0:w_3_14_2= 999.9996m     0:w_3_14_3=  63.3449f
 +    0:w_3_14_3= 999.9996m     0:w_3_14_4=  63.3449f     0:w_3_14_4= 999.9996m
 +    0:w_3_15_1=  63.3449f     0:w_3_15_1= 999.9996m     0:w_3_15_2= 999.9996m
 +    0:w_3_15_2=  67.2834f     0:w_3_15_3= 999.9996m     0:w_3_15_3=  67.2834f
 +    0:w_3_15_4=  63.3449f     0:w_3_15_4= 999.9996m     0:w_3_16_1=  63.3449f
 +    0:w_3_16_1= 999.9996m     0:w_3_16_2=  63.3449f     0:w_3_16_2= 999.9996m
 +    0:w_3_16_3=  63.3449f     0:w_3_16_3= 999.9996m     0:w_3_16_4=  63.3449f
 +    0:w_3_16_4= 999.9996m     0:w_3_17_1= 999.9996m     0:w_3_17_1=  67.9706f
 +    0:w_3_17_2= 999.9996m     0:w_3_17_2=  67.9706f     0:w_3_17_3= 999.9996m
 +    0:w_3_17_3=  67.9706f     0:w_3_17_4= 999.9996m     0:w_3_17_4=  67.9706f
 +    0:w_3_18_1= 999.9996m     0:w_3_18_1=  67.9706f     0:w_3_18_2=  63.3449f
 +    0:w_3_18_2= 999.9996m     0:w_3_18_3=  63.3449f     0:w_3_18_3= 999.9996m
 +    0:w_3_18_4= 999.9996m     0:w_3_18_4=  67.9706f     0:w_3_19_1= 999.9996m
 +    0:w_3_19_1=  67.2834f     0:w_3_19_2=  63.3449f     0:w_3_19_2= 999.9996m
 +    0:w_3_19_3=  63.3449f     0:w_3_19_3= 999.9996m     0:w_3_19_4=  63.3449f
 +    0:w_3_19_4= 999.9996m     0:w_3_1_1 = 999.9996m     0:w_3_1_1_=  67.9706f
 +    0:w_3_1_2 =  63.3449f     0:w_3_1_2_= 999.9996m     0:w_3_1_3 =  63.3449f
 +    0:w_3_1_3_= 999.9996m     0:w_3_1_4 = 999.9996m     0:w_3_1_4_=  67.9706f
 +    0:w_3_20_1= 999.9996m     0:w_3_20_1=  67.9706f     0:w_3_20_2= 999.9996m
 +    0:w_3_20_2=  67.9706f     0:w_3_20_3=  63.3449f     0:w_3_20_3= 999.9996m
 +    0:w_3_20_4= 999.9996m     0:w_3_20_4=  67.9706f     0:w_3_21_1= 999.9996m
 +    0:w_3_21_1=  67.2834f     0:w_3_21_2= 999.9996m     0:w_3_21_2=  67.2834f
 +    0:w_3_21_3= 999.9996m     0:w_3_21_3=  67.2834f     0:w_3_21_4=  63.3449f
 +    0:w_3_21_4= 999.9996m     0:w_3_22_1=  63.3449f     0:w_3_22_1= 999.9996m
 +    0:w_3_22_2= 999.9996m     0:w_3_22_2=  67.9706f     0:w_3_22_3=  63.3449f
 +    0:w_3_22_3= 999.9996m     0:w_3_22_4= 999.9996m     0:w_3_22_4=  67.9706f
 +    0:w_3_23_1=  63.3449f     0:w_3_23_1= 999.9996m     0:w_3_23_2=  63.3449f
 +    0:w_3_23_2= 999.9996m     0:w_3_23_3=  63.3449f     0:w_3_23_3= 999.9996m
 +    0:w_3_23_4= 999.9996m     0:w_3_23_4=  67.2834f     0:w_3_24_1= 999.9996m
 +    0:w_3_24_1=  67.2834f     0:w_3_24_2= 999.9996m     0:w_3_24_2=  67.2834f
 +    0:w_3_24_3= 999.9996m     0:w_3_24_3=  67.2834f     0:w_3_24_4=  63.3449f
 +    0:w_3_24_4= 999.9996m     0:w_3_25_1= 999.9996m     0:w_3_25_1=  67.2834f
 +    0:w_3_25_2= 999.9996m     0:w_3_25_2=  67.2834f     0:w_3_25_3= 999.9996m
 +    0:w_3_25_3=  67.2834f     0:w_3_25_4=  63.3449f     0:w_3_25_4= 999.9996m
 +    0:w_3_26_1= 999.9996m     0:w_3_26_1=  67.2834f     0:w_3_26_2= 999.9996m
 +    0:w_3_26_2=  67.2834f     0:w_3_26_3= 999.9996m     0:w_3_26_3=  67.2834f
 +    0:w_3_26_4=  63.3449f     0:w_3_26_4= 999.9996m     0:w_3_27_1= 999.9996m
 +    0:w_3_27_1=  67.9706f     0:w_3_27_2= 999.9996m     0:w_3_27_2=  67.9706f
 +    0:w_3_27_3= 999.9996m     0:w_3_27_3=  67.9706f     0:w_3_27_4=  63.3449f
 +    0:w_3_27_4= 999.9996m     0:w_3_28_1= 999.9996m     0:w_3_28_1=  67.9706f
 +    0:w_3_28_2=  63.3449f     0:w_3_28_2= 999.9996m     0:w_3_28_3=  63.3449f
 +    0:w_3_28_3= 999.9996m     0:w_3_28_4=  63.3449f     0:w_3_28_4= 999.9996m
 +    0:w_3_29_1=  63.3449f     0:w_3_29_1= 999.9996m     0:w_3_29_2=  63.3449f
 +    0:w_3_29_2= 999.9996m     0:w_3_29_3=  63.3449f     0:w_3_29_3= 999.9996m
 +    0:w_3_29_4=  63.3449f     0:w_3_29_4= 999.9996m     0:w_3_2_1 =  63.3449f
 +    0:w_3_2_1_= 999.9996m     0:w_3_2_2 = 999.9996m     0:w_3_2_2_=  67.2834f
 +    0:w_3_2_3 = 999.9996m     0:w_3_2_3_=  67.2834f     0:w_3_2_4 =  63.3449f
 +    0:w_3_2_4_= 999.9996m     0:w_3_30_1=  63.3449f     0:w_3_30_1= 999.9996m
 +    0:w_3_30_2=  63.3449f     0:w_3_30_2= 999.9996m     0:w_3_30_3= 999.9996m
 +    0:w_3_30_3=  67.9706f     0:w_3_30_4=  63.3449f     0:w_3_30_4= 999.9996m
 +    0:w_3_31_1= 999.9996m     0:w_3_31_1=  67.9706f     0:w_3_31_2=  63.3449f
 +    0:w_3_31_2= 999.9996m     0:w_3_31_3=  63.3449f     0:w_3_31_3= 999.9996m
 +    0:w_3_31_4= 999.9996m     0:w_3_31_4=  67.9706f     0:w_3_32_1=  63.3449f
 +    0:w_3_32_1= 999.9996m     0:w_3_32_2=  63.3449f     0:w_3_32_2= 999.9996m
 +    0:w_3_32_3= 999.9996m     0:w_3_32_3=  67.2834f     0:w_3_32_4= 999.9996m
 +    0:w_3_32_4=  67.2834f     0:w_3_3_1 =  63.3449f     0:w_3_3_1_= 999.9996m
 +    0:w_3_3_2 = 999.9996m     0:w_3_3_2_=  67.9706f     0:w_3_3_3 =  63.3449f
 +    0:w_3_3_3_= 999.9996m     0:w_3_3_4 =  63.3449f     0:w_3_3_4_= 999.9996m
 +    0:w_3_4_1 = 999.9996m     0:w_3_4_1_=  67.9706f     0:w_3_4_2 =  63.3449f
 +    0:w_3_4_2_= 999.9996m     0:w_3_4_3 = 999.9996m     0:w_3_4_3_=  67.9706f
 +    0:w_3_4_4 =  63.3449f     0:w_3_4_4_= 999.9996m     0:w_3_5_1 = 999.9996m
 +    0:w_3_5_1_=  67.9706f     0:w_3_5_2 =  63.3449f     0:w_3_5_2_= 999.9996m
 +    0:w_3_5_3 =  63.3449f     0:w_3_5_3_= 999.9996m     0:w_3_5_4 = 999.9996m
 +    0:w_3_5_4_=  67.9706f     0:w_3_6_1 = 999.9996m     0:w_3_6_1_=  67.2834f
 +    0:w_3_6_2 =  63.3449f     0:w_3_6_2_= 999.9996m     0:w_3_6_3 = 999.9996m
 +    0:w_3_6_3_=  67.2834f     0:w_3_6_4 =  63.3449f     0:w_3_6_4_= 999.9996m
 +    0:w_3_7_1 =  63.3449f     0:w_3_7_1_= 999.9996m     0:w_3_7_2 =  63.3449f
 +    0:w_3_7_2_= 999.9996m     0:w_3_7_3 =  63.3449f     0:w_3_7_3_= 999.9996m
 +    0:w_3_7_4 = 999.9996m     0:w_3_7_4_=  67.9706f     0:w_3_8_1 =  63.3449f
 +    0:w_3_8_1_= 999.9996m     0:w_3_8_2 =  63.3449f     0:w_3_8_2_= 999.9996m
 +    0:w_3_8_3 =  63.3449f     0:w_3_8_3_= 999.9996m     0:w_3_8_4 =  63.3449f
 +    0:w_3_8_4_= 999.9996m     0:w_3_9_1 = 999.9996m     0:w_3_9_1_=  67.2834f
 +    0:w_3_9_2 = 999.9996m     0:w_3_9_2_=  67.2834f     0:w_3_9_3 = 999.9996m
 +    0:w_3_9_3_=  67.2834f     0:w_3_9_4 = 999.9996m     0:w_3_9_4_=  67.2834f
 +    0:w_4_10_1=  63.3449f     0:w_4_10_1= 999.9996m     0:w_4_10_2=  63.3449f
 +    0:w_4_10_2= 999.9996m     0:w_4_10_3= 999.9996m     0:w_4_10_3=  67.9706f
 +    0:w_4_10_4=  63.3449f     0:w_4_10_4= 999.9996m     0:w_4_11_1= 999.9996m
 +    0:w_4_11_1=  67.2834f     0:w_4_11_2=  63.3449f     0:w_4_11_2= 999.9996m
 +    0:w_4_11_3= 999.9996m     0:w_4_11_3=  67.2834f     0:w_4_11_4= 999.9996m
 +    0:w_4_11_4=  67.2834f     0:w_4_12_1=  63.3449f     0:w_4_12_1= 999.9996m
 +    0:w_4_12_2=  63.3449f     0:w_4_12_2= 999.9996m     0:w_4_12_3= 999.9996m
 +    0:w_4_12_3=  67.9706f     0:w_4_12_4= 999.9996m     0:w_4_12_4=  67.9706f
 +    0:w_4_13_1= 999.9996m     0:w_4_13_1=  67.2834f     0:w_4_13_2=  63.3449f
 +    0:w_4_13_2= 999.9996m     0:w_4_13_3=  63.3449f     0:w_4_13_3= 999.9996m
 +    0:w_4_13_4= 999.9996m     0:w_4_13_4=  67.2834f     0:w_4_14_1=  63.3449f
 +    0:w_4_14_1= 999.9996m     0:w_4_14_2= 999.9996m     0:w_4_14_2=  67.9706f
 +    0:w_4_14_3=  63.3449f     0:w_4_14_3= 999.9996m     0:w_4_14_4= 999.9996m
 +    0:w_4_14_4=  67.9706f     0:w_4_15_1= 999.9996m     0:w_4_15_1=  67.2834f
 +    0:w_4_15_2=  63.3449f     0:w_4_15_2= 999.9996m     0:w_4_15_3=  63.3449f
 +    0:w_4_15_3= 999.9996m     0:w_4_15_4= 999.9996m     0:w_4_15_4=  67.2834f
 +    0:w_4_16_1= 999.9996m     0:w_4_16_1=  67.2834f     0:w_4_16_2=  63.3449f
 +    0:w_4_16_2= 999.9996m     0:w_4_16_3=  63.3449f     0:w_4_16_3= 999.9996m
 +    0:w_4_16_4= 999.9996m     0:w_4_16_4=  67.2834f     0:w_4_17_1=  63.3449f
 +    0:w_4_17_1= 999.9996m     0:w_4_17_2= 999.9996m     0:w_4_17_2=  67.9706f
 +    0:w_4_17_3= 999.9996m     0:w_4_17_3=  67.9706f     0:w_4_17_4= 999.9996m
 +    0:w_4_17_4=  67.9706f     0:w_4_18_1=  63.3449f     0:w_4_18_1= 999.9996m
 +    0:w_4_18_2=  63.3449f     0:w_4_18_2= 999.9996m     0:w_4_18_3=  63.3449f
 +    0:w_4_18_3= 999.9996m     0:w_4_18_4= 999.9996m     0:w_4_18_4=  67.9706f
 +    0:w_4_19_1=  63.3449f     0:w_4_19_1= 999.9996m     0:w_4_19_2=  63.3449f
 +    0:w_4_19_2= 999.9996m     0:w_4_19_3= 999.9996m     0:w_4_19_3=  67.2834f
 +    0:w_4_19_4=  63.3449f     0:w_4_19_4= 999.9996m     0:w_4_1_1 =  63.3449f
 +    0:w_4_1_1_= 999.9996m     0:w_4_1_2 = 999.9996m     0:w_4_1_2_=  67.9706f
 +    0:w_4_1_3 =  63.3449f     0:w_4_1_3_= 999.9996m     0:w_4_1_4 = 999.9996m
 +    0:w_4_1_4_=  67.9706f     0:w_4_20_1=  63.3449f     0:w_4_20_1= 999.9996m
 +    0:w_4_20_2=  63.3449f     0:w_4_20_2= 999.9996m     0:w_4_20_3=  63.3449f
 +    0:w_4_20_3= 999.9996m     0:w_4_20_4=  63.3449f     0:w_4_20_4= 999.9996m
 +    0:w_4_21_1=  63.3449f     0:w_4_21_1= 999.9996m     0:w_4_21_2=  63.3449f
 +    0:w_4_21_2= 999.9996m     0:w_4_21_3=  63.3449f     0:w_4_21_3= 999.9996m
 +    0:w_4_21_4=  63.3449f     0:w_4_21_4= 999.9996m     0:w_4_22_1=  63.3449f
 +    0:w_4_22_1= 999.9996m     0:w_4_22_2= 999.9996m     0:w_4_22_2=  67.9706f
 +    0:w_4_22_3= 999.9996m     0:w_4_22_3=  67.9706f     0:w_4_22_4=  63.3449f
 +    0:w_4_22_4= 999.9996m     0:w_4_23_1= 999.9996m     0:w_4_23_1=  67.2834f
 +    0:w_4_23_2=  63.3449f     0:w_4_23_2= 999.9996m     0:w_4_23_3=  63.3449f
 +    0:w_4_23_3= 999.9996m     0:w_4_23_4=  63.3449f     0:w_4_23_4= 999.9996m
 +    0:w_4_24_1=  63.3449f     0:w_4_24_1= 999.9996m     0:w_4_24_2= 999.9996m
 +    0:w_4_24_2=  67.2834f     0:w_4_24_3=  63.3449f     0:w_4_24_3= 999.9996m
 +    0:w_4_24_4=  63.3449f     0:w_4_24_4= 999.9996m     0:w_4_25_1= 999.9996m
 +    0:w_4_25_1=  67.2834f     0:w_4_25_2=  63.3449f     0:w_4_25_2= 999.9996m
 +    0:w_4_25_3=  63.3449f     0:w_4_25_3= 999.9996m     0:w_4_25_4=  63.3449f
 +    0:w_4_25_4= 999.9996m     0:w_4_26_1= 999.9996m     0:w_4_26_1=  67.2834f
 +    0:w_4_26_2=  63.3449f     0:w_4_26_2= 999.9996m     0:w_4_26_3= 999.9996m
 +    0:w_4_26_3=  67.2834f     0:w_4_26_4= 999.9996m     0:w_4_26_4=  67.2834f
 +    0:w_4_27_1=  63.3449f     0:w_4_27_1= 999.9996m     0:w_4_27_2= 999.9996m
 +    0:w_4_27_2=  67.9706f     0:w_4_27_3= 999.9996m     0:w_4_27_3=  67.9706f
 +    0:w_4_27_4=  63.3449f     0:w_4_27_4= 999.9996m     0:w_4_28_1= 999.9996m
 +    0:w_4_28_1=  67.9706f     0:w_4_28_2= 999.9996m     0:w_4_28_2=  67.9706f
 +    0:w_4_28_3=  63.3449f     0:w_4_28_3= 999.9996m     0:w_4_28_4= 999.9996m
 +    0:w_4_28_4=  67.9706f     0:w_4_29_1=  63.3449f     0:w_4_29_1= 999.9996m
 +    0:w_4_29_2=  63.3449f     0:w_4_29_2= 999.9996m     0:w_4_29_3= 999.9996m
 +    0:w_4_29_3=  67.2834f     0:w_4_29_4= 999.9996m     0:w_4_29_4=  67.2834f
 +    0:w_4_2_1 = 999.9996m     0:w_4_2_1_=  67.2834f     0:w_4_2_2 = 999.9996m
 +    0:w_4_2_2_=  67.2834f     0:w_4_2_3 =  63.3449f     0:w_4_2_3_= 999.9996m
 +    0:w_4_2_4 = 999.9996m     0:w_4_2_4_=  67.2834f     0:w_4_30_1= 999.9996m
 +    0:w_4_30_1=  67.9706f     0:w_4_30_2=  63.3449f     0:w_4_30_2= 999.9996m
 +    0:w_4_30_3= 999.9996m     0:w_4_30_3=  67.9706f     0:w_4_30_4=  63.3449f
 +    0:w_4_30_4= 999.9996m     0:w_4_31_1= 999.9996m     0:w_4_31_1=  67.9706f
 +    0:w_4_31_2= 999.9996m     0:w_4_31_2=  67.9706f     0:w_4_31_3=  63.3449f
 +    0:w_4_31_3= 999.9996m     0:w_4_31_4= 999.9996m     0:w_4_31_4=  67.9706f
 +    0:w_4_32_1= 999.9996m     0:w_4_32_1=  67.2834f     0:w_4_32_2= 999.9996m
 +    0:w_4_32_2=  67.2834f     0:w_4_32_3=  63.3449f     0:w_4_32_3= 999.9996m
 +    0:w_4_32_4= 999.9996m     0:w_4_32_4=  67.2834f     0:w_4_3_1 =  63.3449f
 +    0:w_4_3_1_= 999.9996m     0:w_4_3_2 =  63.3449f     0:w_4_3_2_= 999.9996m
 +    0:w_4_3_3 = 999.9996m     0:w_4_3_3_=  67.9706f     0:w_4_3_4 =  63.3449f
 +    0:w_4_3_4_= 999.9996m     0:w_4_4_1 =  63.3449f     0:w_4_4_1_= 999.9996m
 +    0:w_4_4_2 =  63.3449f     0:w_4_4_2_= 999.9996m     0:w_4_4_3 = 999.9996m
 +    0:w_4_4_3_=  67.9706f     0:w_4_4_4 = 999.9996m     0:w_4_4_4_=  67.9706f
 +    0:w_4_5_1 = 999.9996m     0:w_4_5_1_=  67.9706f     0:w_4_5_2 =  63.3449f
 +    0:w_4_5_2_= 999.9996m     0:w_4_5_3 = 999.9996m     0:w_4_5_3_=  67.9706f
 +    0:w_4_5_4 =  63.3449f     0:w_4_5_4_= 999.9996m     0:w_4_6_1 =  63.3449f
 +    0:w_4_6_1_= 999.9996m     0:w_4_6_2 =  63.3449f     0:w_4_6_2_= 999.9996m
 +    0:w_4_6_3 = 999.9996m     0:w_4_6_3_=  67.2834f     0:w_4_6_4 =  63.3449f
 +    0:w_4_6_4_= 999.9996m     0:w_4_7_1 = 999.9996m     0:w_4_7_1_=  67.9706f
 +    0:w_4_7_2 =  63.3449f     0:w_4_7_2_= 999.9996m     0:w_4_7_3 =  63.3449f
 +    0:w_4_7_3_= 999.9996m     0:w_4_7_4 =  63.3449f     0:w_4_7_4_= 999.9996m
 +    0:w_4_8_1 =  63.3449f     0:w_4_8_1_= 999.9996m     0:w_4_8_2 =  63.3449f
 +    0:w_4_8_2_= 999.9996m     0:w_4_8_3 =  63.3449f     0:w_4_8_3_= 999.9996m
 +    0:w_4_8_4 =  63.3449f     0:w_4_8_4_= 999.9996m     0:w_4_9_1 = 999.9996m
 +    0:w_4_9_1_=  67.2834f     0:w_4_9_2 = 999.9996m     0:w_4_9_2_=  67.2834f
 +    0:w_4_9_3 = 999.9996m     0:w_4_9_3_=  67.2834f     0:w_4_9_4 = 999.9996m
 +    0:w_4_9_4_=  67.2834f     0:wl_1_1  =   0.          0:wl_1_2  =   0.     
 +    0:wl_1_3  =   0.          0:wl_1_4  =   0.          0:wl_2_1  =   0.     
 +    0:wl_2_2  =   0.          0:wl_2_3  =   0.          0:wl_2_4  =   0.     
 +    0:wl_3_1  =   0.          0:wl_3_2  =   0.          0:wl_3_3  =   0.     
 +    0:wl_3_4  =   0.          0:wl_4_1  =   0.          0:wl_4_2  =   0.     
 +    0:wl_4_3  =   0.          0:wl_4_4  =   0.          2:in_b    =   9.3204n
 +    4:in_b    = 559.9983m     6:in_b    =   9.3204n     8:in_b    =   9.3204n
 +   10:in_b    =   9.3204n    12:in_b    = 559.9983m    14:in_b    =   9.3204n
 +   16:in_b    = 559.9983m    18:in_b    = 559.9983m    20:in_b    =   9.3204n
 +   22:in_b    = 559.9983m    24:in_b    =   9.3204n    26:in_b    = 559.9983m
 +   28:in_b    =   9.3204n    30:in_b    = 559.9983m    32:in_b    = 559.9983m
 +   34:in_b    =   9.3204n    36:in_b    =   9.3204n    38:in_b    = 559.9983m
 +   40:in_b    =   9.3204n    42:in_b    = 559.9983m    44:in_b    =   9.3204n
 +   46:in_b    = 559.9983m    48:in_b    = 559.9983m    50:in_b    = 559.9983m
 +   52:in_b    = 559.9983m    54:in_b    =   9.3204n    56:in_b    =   9.3204n
 +   58:in_b    = 559.9983m    60:in_b    =   9.3204n    62:in_b    =   9.3204n
 +   64:in_b    = 559.9983m    66:y       = 559.9931m    67:y       = 559.9931m
 +   68:y       = 559.9931m    69:y       = 559.9931m    70:y       =   1.0291u
 +   71:y       =   1.0291u    72:y       =   1.0291u    73:y       =   1.0291u
 +   74:y       =  16.0254n    75:y       =  16.0254n    76:y       =  16.0254n
 +   77:y       =  16.0254n    78:y       =  16.0254n    79:y       = 559.9931m
 +   80:y       =  16.0254n    81:y       = 559.9931m    82:y       =  16.0254n
 +   83:y       =  16.0254n    84:y       = 559.9931m    85:y       =  16.0254n
 +   86:y       =   9.4223n    87:y       =   9.4223n    88:y       =   1.0291u
 +   89:y       =   9.4223n    90:y       =  16.0254n    91:y       = 559.9931m
 +   92:y       = 559.9931m    93:y       = 559.9931m    94:y       =   1.0291u
 +   95:y       =   1.0291u    96:y       =   9.4223n    97:y       =   9.4223n
 +   98:y       =   1.0291u    99:y       =   1.0291u   100:y       =   9.4223n
 +  101:y       =   1.0291u   102:y       = 559.9931m   103:y       =  16.0254n
 +  104:y       =  16.0254n   105:y       = 559.9931m   106:y       =   1.0291u
 +  107:y       =   1.0291u   108:y       =   9.4223n   109:y       =   1.0291u
 +  110:y       = 559.9931m   111:y       = 559.9931m   112:y       = 559.9931m
 +  113:y       = 559.9931m   114:y       =   1.0291u   115:y       =   9.4223n
 +  116:y       =   9.4223n   117:y       =   9.4223n   118:y       = 559.9931m
 +  119:y       =  16.0254n   120:y       =  16.0254n   121:y       = 559.9931m
 +  122:y       =   9.4223n   123:y       =   9.4223n   124:y       =   9.4223n
 +  125:y       =   9.4223n   126:y       =   1.0291u   127:y       =   9.4223n
 +  128:y       =   9.4223n   129:y       =   9.4223n   130:y       = 559.9931m
 +  131:y       =  16.0254n   132:y       =  16.0254n   133:y       = 559.9931m
 +  134:y       = 559.9931m   135:y       = 559.9931m   136:y       = 559.9931m
 +  137:y       =  16.0254n   138:y       =   1.0291u   139:y       =   1.0291u
 +  140:y       =   1.0291u   141:y       =   1.0291u   142:y       =  16.0254n
 +  143:y       =  16.0254n   144:y       = 559.9931m   145:y       =  16.0254n
 +  146:y       =   1.0291u   147:y       =   1.0291u   148:y       =   1.0291u
 +  149:y       =   1.0291u   150:y       =  16.0254n   151:y       = 559.9931m
 +  152:y       = 559.9931m   153:y       =  16.0254n   154:y       =   1.0291u
 +  155:y       =   9.4223n   156:y       =   1.0291u   157:y       =   1.0291u
 +  158:y       =   9.4223n   159:y       =   1.0291u   160:y       =   9.4223n
 +  161:y       =   1.0291u   162:y       =   1.0291u   163:y       =   1.0291u
 +  164:y       =   1.0291u   165:y       =   1.0291u   166:y       =   1.0291u
 +  167:y       =   9.4223n   168:y       =   1.0291u   169:y       =   9.4223n
 +  170:y       = 559.9931m   171:y       = 559.9931m   172:y       = 559.9931m
 +  173:y       =  16.0254n   174:y       =  16.0254n   175:y       =  16.0254n
 +  176:y       = 559.9931m   177:y       = 559.9931m   178:y       =   9.4223n
 +  179:y       =   1.0291u   180:y       =   1.0291u   181:y       =   9.4223n
 +  182:y       =  16.0254n   183:y       =  16.0254n   184:y       = 559.9931m
 +  185:y       =  16.0254n   186:y       = 559.9931m   187:y       = 559.9931m
 +  188:y       = 559.9931m   189:y       =  16.0254n   190:y       =   9.4223n
 +  191:y       =   1.0291u   192:y       =   1.0291u   193:y       =   1.0291u
 +  194:y       = 559.9931m   195:y       =  16.0254n   196:y       = 559.9931m
 +  197:y       = 559.9931m   198:y       =   1.0291u   199:y       =   9.4223n
 +  200:y       =   9.4223n   201:y       =   9.4223n   202:y       =  16.0254n
 +  203:y       =  16.0254n   204:y       = 559.9931m   205:y       =  16.0254n
 +  206:y       =  16.0254n   207:y       =  16.0254n   208:y       =  16.0254n
 +  209:y       = 559.9931m   210:y       =  16.0254n   211:y       = 559.9931m
 +  212:y       =  16.0254n   213:y       = 559.9931m   214:y       =   9.4223n
 +  215:y       =   9.4223n   216:y       =   9.4223n   217:y       =   1.0291u
 +  218:y       = 559.9931m   219:y       =  16.0254n   220:y       =  16.0254n
 +  221:y       =  16.0254n   222:y       =   1.0291u   223:y       =   9.4223n
 +  224:y       =   9.4223n   225:y       =   1.0291u   226:y       =   9.4223n
 +  227:y       =   1.0291u   228:y       =   9.4223n   229:y       =   1.0291u
 +  230:y       =  16.0254n   231:y       =  16.0254n   232:y       =  16.0254n
 +  233:y       =  16.0254n   234:y       =   9.4223n   235:y       =   9.4223n
 +  236:y       =   1.0291u   237:y       =   9.4223n   238:y       =  16.0254n
 +  239:y       =  16.0254n   240:y       =  16.0254n   241:y       =  16.0254n
 +  242:y       =   9.4223n   243:y       =   9.4223n   244:y       =   1.0291u
 +  245:y       =   1.0291u   246:y       =  16.0254n   247:y       =  16.0254n
 +  248:y       = 559.9931m   249:y       =  16.0254n   250:y       =   9.4223n
 +  251:y       =   9.4223n   252:y       =   1.0291u   253:y       =   1.0291u
 +  254:y       =   9.4223n   255:y       =   1.0291u   256:y       =   9.4223n
 +  257:y       =   1.0291u   258:y       =  16.0254n   259:y       = 559.9931m
 +  260:y       = 559.9931m   261:y       =  16.0254n   262:y       =  16.0254n
 +  263:y       = 559.9931m   264:y       =  16.0254n   265:y       =  16.0254n
 +  266:y       =   1.0291u   267:y       =   1.0291u   268:y       =   9.4223n
 +  269:y       =   1.0291u   270:y       = 559.9931m   271:y       = 559.9931m
 +  272:y       =  16.0254n   273:y       = 559.9931m   274:y       =   9.4223n
 +  275:y       =   1.0291u   276:y       =   9.4223n   277:y       =   1.0291u
 +  278:y       =  16.0254n   279:y       =  16.0254n   280:y       =  16.0254n
 +  281:y       =  16.0254n   282:y       =   9.4223n   283:y       =   1.0291u
 +  284:y       =   1.0291u   285:y       =   9.4223n   286:y       =   9.4223n
 +  287:y       =   9.4223n   288:y       =   1.0291u   289:y       =   1.0291u
 +  290:y       =   1.0291u   291:y       =   9.4223n   292:y       =   9.4223n
 +  293:y       =   9.4223n   294:y       =   1.0291u   295:y       =   9.4223n
 +  296:y       =   1.0291u   297:y       =   1.0291u   298:y       = 559.9931m
 +  299:y       = 559.9931m   300:y       =  16.0254n   301:y       = 559.9931m
 +  302:y       =  16.0254n   303:y       =  16.0254n   304:y       =  16.0254n
 +  305:y       = 559.9931m   306:y       =   9.4223n   307:y       =   1.0291u
 +  308:y       =   9.4223n   309:y       =   9.4223n   310:y       = 559.9931m
 +  311:y       =  16.0254n   312:y       = 559.9931m   313:y       =  16.0254n
 +  314:y       = 559.9931m   315:y       =  16.0254n   316:y       = 559.9931m
 +  317:y       =  16.0254n   318:y       =   9.4223n   319:y       =   1.0291u
 +  320:y       =   9.4223n   321:y       =   1.0291u   322:y       = 559.9931m
 +  323:y       =  16.0254n   324:y       =  16.0254n   325:y       = 559.9931m
 +  326:y       =   9.4223n   327:y       =   1.0291u   328:y       =   1.0291u
 +  329:y       =   9.4223n   330:y       =  16.0254n   331:y       = 559.9931m
 +  332:y       =  16.0254n   333:y       =  16.0254n   334:y       = 559.9931m
 +  335:y       =  16.0254n   336:y       = 559.9931m   337:y       =  16.0254n
 +  338:y       = 559.9931m   339:y       =  16.0254n   340:y       =  16.0254n
 +  341:y       = 559.9931m   342:y       =   1.0291u   343:y       =   9.4223n
 +  344:y       =   1.0291u   345:y       =   9.4223n   346:y       =  16.0254n
 +  347:y       =  16.0254n   348:y       =  16.0254n   349:y       = 559.9931m
 +  350:y       =   9.4223n   351:y       =   9.4223n   352:y       =   9.4223n
 +  353:y       =   9.4223n   354:y       =   1.0291u   355:y       =   1.0291u
 +  356:y       =   1.0291u   357:y       =   1.0291u   358:y       = 559.9931m
 +  359:y       =  16.0254n   360:y       = 559.9931m   361:y       = 559.9931m
 +  362:y       =   9.4223n   363:y       =   9.4223n   364:y       =   1.0291u
 +  365:y       =   1.0291u   366:y       = 559.9931m   367:y       = 559.9931m
 +  368:y       =  16.0254n   369:y       =  16.0254n   370:y       =   1.0291u
 +  371:y       =   1.0291u   372:y       =   1.0291u   373:y       =   9.4223n
 +  374:y       =  16.0254n   375:y       =  16.0254n   376:y       =  16.0254n
 +  377:y       =  16.0254n   378:y       =   9.4223n   379:y       =   1.0291u
 +  380:y       =   1.0291u   381:y       =   9.4223n   382:y       =   9.4223n
 +  383:y       =   9.4223n   384:y       =   9.4223n   385:y       =   9.4223n
 +  386:y       = 559.9931m   387:y       = 559.9931m   388:y       = 559.9931m
 +  389:y       = 559.9931m   390:y       = 559.9931m   391:y       =  16.0254n
 +  392:y       =  16.0254n   393:y       = 559.9931m   394:y       =   1.0291u
 +  395:y       =   9.4223n   396:y       =   9.4223n   397:y       =   9.4223n
 +  398:y       = 559.9931m   399:y       = 559.9931m   400:y       =  16.0254n
 +  401:y       = 559.9931m   402:y       =   1.0291u   403:y       =   1.0291u
 +  404:y       =   1.0291u   405:y       =   9.4223n   406:y       =  16.0254n
 +  407:y       = 559.9931m   408:y       =  16.0254n   409:y       = 559.9931m
 +  410:y       =   9.4223n   411:y       =   9.4223n   412:y       =   9.4223n
 +  413:y       =   1.0291u   414:y       =   1.0291u   415:y       =   1.0291u
 +  416:y       =   1.0291u   417:y       =   9.4223n   418:y       =   1.0291u
 +  419:y       =   1.0291u   420:y       =   1.0291u   421:y       =   9.4223n
 +  422:y       =   1.0291u   423:y       =   1.0291u   424:y       =   1.0291u
 +  425:y       =   9.4223n   426:y       = 559.9931m   427:y       = 559.9931m
 +  428:y       = 559.9931m   429:y       =  16.0254n   430:y       = 559.9931m
 +  431:y       =  16.0254n   432:y       =  16.0254n   433:y       =  16.0254n
 +  434:y       =   9.4223n   435:y       =   9.4223n   436:y       =   9.4223n
 +  437:y       =   9.4223n   438:y       =  16.0254n   439:y       =  16.0254n
 +  440:y       = 559.9931m   441:y       =  16.0254n   442:y       = 559.9931m
 +  443:y       =  16.0254n   444:y       =  16.0254n   445:y       = 559.9931m
 +  446:y       =   9.4223n   447:y       =   9.4223n   448:y       =   1.0291u
 +  449:y       =   1.0291u   450:y       =  16.0254n   451:y       = 559.9931m
 +  452:y       =  16.0254n   453:y       = 559.9931m   454:y       =   1.0291u
 +  455:y       =   1.0291u   456:y       =   9.4223n   457:y       =   1.0291u
 +  458:y       =  16.0254n   459:y       =  16.0254n   460:y       = 559.9931m
 +  461:y       =  16.0254n   462:y       =  16.0254n   463:y       =  16.0254n
 +  464:y       = 559.9931m   465:y       = 559.9931m   466:y       = 559.9931m
 +  467:y       =  16.0254n   468:y       = 559.9931m   469:y       =  16.0254n
 +  470:y       =   9.4223n   471:y       =   9.4223n   472:y       =   1.0291u
 +  473:y       =   9.4223n   474:y       = 559.9931m   475:y       =  16.0254n
 +  476:y       =  16.0254n   477:y       =  16.0254n   478:y       =   9.4223n
 +  479:y       =   9.4223n   480:y       =   9.4223n   481:y       =   9.4223n
 +  482:y       =   1.0291u   483:y       =   1.0291u   484:y       =   1.0291u
 +  485:y       =   1.0291u   486:y       =  16.0254n   487:y       =  16.0254n
 +  488:y       = 559.9931m   489:y       =  16.0254n   490:y       =   1.0291u
 +  491:y       =   9.4223n   492:y       =   1.0291u   493:y       =   1.0291u
 +  494:y       =  16.0254n   495:y       =  16.0254n   496:y       = 559.9931m
 +  497:y       = 559.9931m   498:y       =   1.0291u   499:y       =   9.4223n
 +  500:y       =   9.4223n   501:y       =   1.0291u   502:y       =  16.0254n
 +  503:y       = 559.9931m   504:y       =  16.0254n   505:y       = 559.9931m
 +  506:y       =   1.0291u   507:y       =   9.4223n   508:y       =   9.4223n
 +  509:y       =   1.0291u   510:y       =   1.0291u   511:y       =   9.4223n
 +  512:y       =   9.4223n   513:y       =   1.0291u   514:y       =  16.0254n
 +  515:y       = 559.9931m   516:y       = 559.9931m   517:y       = 559.9931m
 +  518:y       =  16.0254n   519:y       =  16.0254n   520:y       =  16.0254n
 +  521:y       = 559.9931m   522:y       =   9.4223n   523:y       =   9.4223n
 +  524:y       =   1.0291u   525:y       =   9.4223n   526:y       =  16.0254n
 +  527:y       =  16.0254n   528:y       =  16.0254n   529:y       =  16.0254n
 +  530:y       =   9.4223n   531:y       =   9.4223n   532:y       =   9.4223n
 +  533:y       =   9.4223n   534:y       =  16.0254n   535:y       = 559.9931m
 +  536:y       = 559.9931m   537:y       =  16.0254n   538:y       =   1.0291u
 +  539:y       =   9.4223n   540:y       =   9.4223n   541:y       =   9.4223n
 +  542:y       =   9.4223n   543:y       =   1.0291u   544:y       =   9.4223n
 +  545:y       =   9.4223n   546:y       =   1.0291u   547:y       =   9.4223n
 +  548:y       =   9.4223n   549:y       =   9.4223n   550:y       =   1.0291u
 +  551:y       =   9.4223n   552:y       =   1.0291u   553:y       =   1.0291u
 +  554:y       =  16.0254n   555:y       = 559.9931m   556:y       = 559.9931m
 +  557:y       =  16.0254n   558:y       = 559.9931m   559:y       = 559.9931m
 +  560:y       =  16.0254n   561:y       = 559.9931m   562:y       =   9.4223n
 +  563:y       =   9.4223n   564:y       =   1.0291u   565:y       =   1.0291u
 +  566:y       = 559.9931m   567:y       =  16.0254n   568:y       = 559.9931m
 +  569:y       =  16.0254n   570:y       = 559.9931m   571:y       = 559.9931m
 +  572:y       =  16.0254n   573:y       = 559.9931m   574:y       =   1.0291u
 +  575:y       =   1.0291u   576:y       =   9.4223n   577:y       =   1.0291u
 +  670:n1      = 559.9966m   671:in_b    =   1.0294u   673:n1      = 559.9966m
 +  674:in_b    =   1.0294u   676:n1      = 559.9966m   677:in_b    =   1.0294u
 +  679:n1      = 559.9966m   680:in_b    =   1.0294u   682:n1      = 559.9985m
 +  683:in_b    = 559.9983m   685:n1      = 559.9985m   686:in_b    = 559.9983m
 +  688:n1      = 559.9985m   689:in_b    = 559.9983m   691:n1      = 559.9985m
 +  692:in_b    = 559.9983m   694:n1      =  42.6847u   695:in_b    = 559.9983m
 +  697:n1      =  42.6847u   698:in_b    = 559.9983m   700:n1      =  42.6847u
 +  701:in_b    = 559.9983m   703:n1      =  42.6847u   704:in_b    = 559.9983m
 +  706:n1      =  42.6847u   707:in_b    = 559.9983m   709:n1      = 559.9966m
 +  710:in_b    =   1.0294u   712:n1      =  42.6847u   713:in_b    = 559.9983m
 +  715:n1      = 559.9966m   716:in_b    =   1.0294u   718:n1      =  42.6847u
 +  719:in_b    = 559.9983m   721:n1      =  42.6847u   722:in_b    = 559.9983m
 +  724:n1      = 559.9966m   725:in_b    =   1.0294u   727:n1      =  42.6847u
 +  728:in_b    = 559.9983m   730:n1      = 357.4367m   731:in_b    = 559.9983m
 +  733:n1      = 357.4367m   734:in_b    = 559.9983m   736:n1      = 559.9985m
 +  737:in_b    = 559.9983m   739:n1      = 357.4367m   740:in_b    = 559.9983m
 +  742:n1      =  42.6847u   743:in_b    = 559.9983m   745:n1      = 559.9966m
 +  746:in_b    =   1.0294u   748:n1      = 559.9966m   749:in_b    =   1.0294u
 +  751:n1      = 559.9966m   752:in_b    =   1.0294u   754:n1      = 559.9985m
 +  755:in_b    = 559.9983m   757:n1      = 559.9985m   758:in_b    = 559.9983m
 +  760:n1      = 357.4367m   761:in_b    = 559.9983m   763:n1      = 357.4367m
 +  764:in_b    = 559.9983m   766:n1      = 559.9985m   767:in_b    = 559.9983m
 +  769:n1      = 559.9985m   770:in_b    = 559.9983m   772:n1      = 357.4367m
 +  773:in_b    = 559.9983m   775:n1      = 559.9985m   776:in_b    = 559.9983m
 +  778:n1      = 559.9966m   779:in_b    =   1.0294u   781:n1      =  42.6847u
 +  782:in_b    = 559.9983m   784:n1      =  42.6847u   785:in_b    = 559.9983m
 +  787:n1      = 559.9966m   788:in_b    =   1.0294u   790:n1      = 559.9985m
 +  791:in_b    = 559.9983m   793:n1      = 559.9985m   794:in_b    = 559.9983m
 +  796:n1      = 357.4367m   797:in_b    = 559.9983m   799:n1      = 559.9985m
 +  800:in_b    = 559.9983m   802:n1      = 559.9966m   803:in_b    =   1.0294u
 +  805:n1      = 559.9966m   806:in_b    =   1.0294u   808:n1      = 559.9966m
 +  809:in_b    =   1.0294u   811:n1      = 559.9966m   812:in_b    =   1.0294u
 +  814:n1      = 559.9985m   815:in_b    = 559.9983m   817:n1      = 357.4367m
 +  818:in_b    = 559.9983m   820:n1      = 357.4367m   821:in_b    = 559.9983m
 +  823:n1      = 357.4367m   824:in_b    = 559.9983m   826:n1      = 559.9966m
 +  827:in_b    =   1.0294u   829:n1      =  42.6847u   830:in_b    = 559.9983m
 +  832:n1      =  42.6847u   833:in_b    = 559.9983m   835:n1      = 559.9966m
 +  836:in_b    =   1.0294u   838:n1      = 357.4367m   839:in_b    = 559.9983m
 +  841:n1      = 357.4367m   842:in_b    = 559.9983m   844:n1      = 357.4367m
 +  845:in_b    = 559.9983m   847:n1      = 357.4367m   848:in_b    = 559.9983m
 +  850:n1      = 559.9985m   851:in_b    = 559.9983m   853:n1      = 357.4367m
 +  854:in_b    = 559.9983m   856:n1      = 357.4367m   857:in_b    = 559.9983m
 +  859:n1      = 357.4367m   860:in_b    = 559.9983m   862:n1      = 559.9966m
 +  863:in_b    =   1.0294u   865:n1      =  42.6847u   866:in_b    = 559.9983m
 +  868:n1      =  42.6847u   869:in_b    = 559.9983m   871:n1      = 559.9966m
 +  872:in_b    =   1.0294u   874:n1      = 559.9966m   875:in_b    =   1.0294u
 +  877:n1      = 559.9966m   878:in_b    =   1.0294u   880:n1      = 559.9966m
 +  881:in_b    =   1.0294u   883:n1      =  42.6847u   884:in_b    = 559.9983m
 +  886:n1      = 559.9985m   887:in_b    = 559.9983m   889:n1      = 559.9985m
 +  890:in_b    = 559.9983m   892:n1      = 559.9985m   893:in_b    = 559.9983m
 +  895:n1      = 559.9985m   896:in_b    = 559.9983m   898:n1      =  42.6847u
 +  899:in_b    = 559.9983m   901:n1      =  42.6847u   902:in_b    = 559.9983m
 +  904:n1      = 559.9966m   905:in_b    =   1.0294u   907:n1      =  42.6847u
 +  908:in_b    = 559.9983m   910:n1      = 559.9985m   911:in_b    = 559.9983m
 +  913:n1      = 559.9985m   914:in_b    = 559.9983m   916:n1      = 559.9985m
 +  917:in_b    = 559.9983m   919:n1      = 559.9985m   920:in_b    = 559.9983m
 +  922:n1      =  42.6847u   923:in_b    = 559.9983m   925:n1      = 559.9966m
 +  926:in_b    =   1.0294u   928:n1      = 559.9966m   929:in_b    =   1.0294u
 +  931:n1      =  42.6847u   932:in_b    = 559.9983m   934:n1      = 559.9985m
 +  935:in_b    = 559.9983m   937:n1      = 357.4367m   938:in_b    = 559.9983m
 +  940:n1      = 559.9985m   941:in_b    = 559.9983m   943:n1      = 559.9985m
 +  944:in_b    = 559.9983m   946:n1      = 357.4367m   947:in_b    = 559.9983m
 +  949:n1      = 559.9985m   950:in_b    = 559.9983m   952:n1      = 357.4367m
 +  953:in_b    = 559.9983m   955:n1      = 559.9985m   956:in_b    = 559.9983m
 +  958:n1      = 559.9985m   959:in_b    = 559.9983m   961:n1      = 559.9985m
 +  962:in_b    = 559.9983m   964:n1      = 559.9985m   965:in_b    = 559.9983m
 +  967:n1      = 559.9985m   968:in_b    = 559.9983m   970:n1      = 559.9985m
 +  971:in_b    = 559.9983m   973:n1      = 357.4367m   974:in_b    = 559.9983m
 +  976:n1      = 559.9985m   977:in_b    = 559.9983m   979:n1      = 357.4367m
 +  980:in_b    = 559.9983m   982:n1      = 559.9966m   983:in_b    =   1.0294u
 +  985:n1      = 559.9966m   986:in_b    =   1.0294u   988:n1      = 559.9966m
 +  989:in_b    =   1.0294u   991:n1      =  42.6847u   992:in_b    = 559.9983m
 +  994:n1      =  42.6847u   995:in_b    = 559.9983m   997:n1      =  42.6847u
 +  998:in_b    = 559.9983m  1000:n1      = 559.9966m  1001:in_b    =   1.0294u
 + 1003:n1      = 559.9966m  1004:in_b    =   1.0294u  1006:n1      = 357.4367m
 + 1007:in_b    = 559.9983m  1009:n1      = 559.9985m  1010:in_b    = 559.9983m
 + 1012:n1      = 559.9985m  1013:in_b    = 559.9983m  1015:n1      = 357.4367m
 + 1016:in_b    = 559.9983m  1018:n1      =  42.6847u  1019:in_b    = 559.9983m
 + 1021:n1      =  42.6847u  1022:in_b    = 559.9983m  1024:n1      = 559.9966m
 + 1025:in_b    =   1.0294u  1027:n1      =  42.6847u  1028:in_b    = 559.9983m
 + 1030:n1      = 559.9966m  1031:in_b    =   1.0294u  1033:n1      = 559.9966m
 + 1034:in_b    =   1.0294u  1036:n1      = 559.9966m  1037:in_b    =   1.0294u
 + 1039:n1      =  42.6847u  1040:in_b    = 559.9983m  1042:n1      = 357.4367m
 + 1043:in_b    = 559.9983m  1045:n1      = 559.9985m  1046:in_b    = 559.9983m
 + 1048:n1      = 559.9985m  1049:in_b    = 559.9983m  1051:n1      = 559.9985m
 + 1052:in_b    = 559.9983m  1054:n1      = 559.9966m  1055:in_b    =   1.0294u
 + 1057:n1      =  42.6847u  1058:in_b    = 559.9983m  1060:n1      = 559.9966m
 + 1061:in_b    =   1.0294u  1063:n1      = 559.9966m  1064:in_b    =   1.0294u
 + 1066:n1      = 559.9985m  1067:in_b    = 559.9983m  1069:n1      = 357.4367m
 + 1070:in_b    = 559.9983m  1072:n1      = 357.4367m  1073:in_b    = 559.9983m
 + 1075:n1      = 357.4367m  1076:in_b    = 559.9983m  1078:n1      =  42.6847u
 + 1079:in_b    = 559.9983m  1081:n1      =  42.6847u  1082:in_b    = 559.9983m
 + 1084:n1      = 559.9966m  1085:in_b    =   1.0294u  1087:n1      =  42.6847u
 + 1088:in_b    = 559.9983m  1090:n1      =  42.6847u  1091:in_b    = 559.9983m
 + 1093:n1      =  42.6847u  1094:in_b    = 559.9983m  1096:n1      =  42.6847u
 + 1097:in_b    = 559.9983m  1099:n1      = 559.9966m  1100:in_b    =   1.0294u
 + 1102:n1      =  42.6847u  1103:in_b    = 559.9983m  1105:n1      = 559.9966m
 + 1106:in_b    =   1.0294u  1108:n1      =  42.6847u  1109:in_b    = 559.9983m
 + 1111:n1      = 559.9966m  1112:in_b    =   1.0294u  1114:n1      = 357.4367m
 + 1115:in_b    = 559.9983m  1117:n1      = 357.4367m  1118:in_b    = 559.9983m
 + 1120:n1      = 357.4367m  1121:in_b    = 559.9983m  1123:n1      = 559.9985m
 + 1124:in_b    = 559.9983m  1126:n1      = 559.9966m  1127:in_b    =   1.0294u
 + 1129:n1      =  42.6847u  1130:in_b    = 559.9983m  1132:n1      =  42.6847u
 + 1133:in_b    = 559.9983m  1135:n1      =  42.6847u  1136:in_b    = 559.9983m
 + 1138:n1      = 559.9985m  1139:in_b    = 559.9983m  1141:n1      = 357.4367m
 + 1142:in_b    = 559.9983m  1144:n1      = 357.4367m  1145:in_b    = 559.9983m
 + 1147:n1      = 559.9985m  1148:in_b    = 559.9983m  1150:n1      = 357.4367m
 + 1151:in_b    = 559.9983m  1153:n1      = 559.9985m  1154:in_b    = 559.9983m
 + 1156:n1      = 357.4367m  1157:in_b    = 559.9983m  1159:n1      = 559.9985m
 + 1160:in_b    = 559.9983m  1162:n1      =  42.6847u  1163:in_b    = 559.9983m
 + 1165:n1      =  42.6847u  1166:in_b    = 559.9983m  1168:n1      =  42.6847u
 + 1169:in_b    = 559.9983m  1171:n1      =  42.6847u  1172:in_b    = 559.9983m
 + 1174:n1      = 357.4367m  1175:in_b    = 559.9983m  1177:n1      = 357.4367m
 + 1178:in_b    = 559.9983m  1180:n1      = 559.9985m  1181:in_b    = 559.9983m
 + 1183:n1      = 357.4367m  1184:in_b    = 559.9983m  1186:n1      =  42.6847u
 + 1187:in_b    = 559.9983m  1189:n1      =  42.6847u  1190:in_b    = 559.9983m
 + 1192:n1      =  42.6847u  1193:in_b    = 559.9983m  1195:n1      =  42.6847u
 + 1196:in_b    = 559.9983m  1198:n1      = 357.4367m  1199:in_b    = 559.9983m
 + 1201:n1      = 357.4367m  1202:in_b    = 559.9983m  1204:n1      = 559.9985m
 + 1205:in_b    = 559.9983m  1207:n1      = 559.9985m  1208:in_b    = 559.9983m
 + 1210:n1      =  42.6847u  1211:in_b    = 559.9983m  1213:n1      =  42.6847u
 + 1214:in_b    = 559.9983m  1216:n1      = 559.9966m  1217:in_b    =   1.0294u
 + 1219:n1      =  42.6847u  1220:in_b    = 559.9983m  1222:n1      = 357.4367m
 + 1223:in_b    = 559.9983m  1225:n1      = 357.4367m  1226:in_b    = 559.9983m
 + 1228:n1      = 559.9985m  1229:in_b    = 559.9983m  1231:n1      = 559.9985m
 + 1232:in_b    = 559.9983m  1234:n1      = 357.4367m  1235:in_b    = 559.9983m
 + 1237:n1      = 559.9985m  1238:in_b    = 559.9983m  1240:n1      = 357.4367m
 + 1241:in_b    = 559.9983m  1243:n1      = 559.9985m  1244:in_b    = 559.9983m
 + 1246:n1      =  42.6847u  1247:in_b    = 559.9983m  1249:n1      = 559.9966m
 + 1250:in_b    =   1.0294u  1252:n1      = 559.9966m  1253:in_b    =   1.0294u
 + 1255:n1      =  42.6847u  1256:in_b    = 559.9983m  1258:n1      =  42.6847u
 + 1259:in_b    = 559.9983m  1261:n1      = 559.9966m  1262:in_b    =   1.0294u
 + 1264:n1      =  42.6847u  1265:in_b    = 559.9983m  1267:n1      =  42.6847u
 + 1268:in_b    = 559.9983m  1270:n1      = 559.9985m  1271:in_b    = 559.9983m
 + 1273:n1      = 559.9985m  1274:in_b    = 559.9983m  1276:n1      = 357.4367m
 + 1277:in_b    = 559.9983m  1279:n1      = 559.9985m  1280:in_b    = 559.9983m
 + 1282:n1      = 559.9966m  1283:in_b    =   1.0294u  1285:n1      = 559.9966m
 + 1286:in_b    =   1.0294u  1288:n1      =  42.6847u  1289:in_b    = 559.9983m
 + 1291:n1      = 559.9966m  1292:in_b    =   1.0294u  1294:n1      = 357.4367m
 + 1295:in_b    = 559.9983m  1297:n1      = 559.9985m  1298:in_b    = 559.9983m
 + 1300:n1      = 357.4367m  1301:in_b    = 559.9983m  1303:n1      = 559.9985m
 + 1304:in_b    = 559.9983m  1306:n1      =  42.6847u  1307:in_b    = 559.9983m
 + 1309:n1      =  42.6847u  1310:in_b    = 559.9983m  1312:n1      =  42.6847u
 + 1313:in_b    = 559.9983m  1315:n1      =  42.6847u  1316:in_b    = 559.9983m
 + 1318:n1      = 357.4367m  1319:in_b    = 559.9983m  1321:n1      = 559.9985m
 + 1322:in_b    = 559.9983m  1324:n1      = 559.9985m  1325:in_b    = 559.9983m
 + 1327:n1      = 357.4367m  1328:in_b    = 559.9983m  1330:n1      = 357.4367m
 + 1331:in_b    = 559.9983m  1333:n1      = 357.4367m  1334:in_b    = 559.9983m
 + 1336:n1      = 559.9985m  1337:in_b    = 559.9983m  1339:n1      = 559.9985m
 + 1340:in_b    = 559.9983m  1342:n1      = 559.9985m  1343:in_b    = 559.9983m
 + 1345:n1      = 357.4367m  1346:in_b    = 559.9983m  1348:n1      = 357.4367m
 + 1349:in_b    = 559.9983m  1351:n1      = 357.4367m  1352:in_b    = 559.9983m
 + 1354:n1      = 559.9985m  1355:in_b    = 559.9983m  1357:n1      = 357.4367m
 + 1358:in_b    = 559.9983m  1360:n1      = 559.9985m  1361:in_b    = 559.9983m
 + 1363:n1      = 559.9985m  1364:in_b    = 559.9983m  1366:n1      = 559.9966m
 + 1367:in_b    =   1.0294u  1369:n1      = 559.9966m  1370:in_b    =   1.0294u
 + 1372:n1      =  42.6847u  1373:in_b    = 559.9983m  1375:n1      = 559.9966m
 + 1376:in_b    =   1.0294u  1378:n1      =  42.6847u  1379:in_b    = 559.9983m
 + 1381:n1      =  42.6847u  1382:in_b    = 559.9983m  1384:n1      =  42.6847u
 + 1385:in_b    = 559.9983m  1387:n1      = 559.9966m  1388:in_b    =   1.0294u
 + 1390:n1      = 357.4367m  1391:in_b    = 559.9983m  1393:n1      = 559.9985m
 + 1394:in_b    = 559.9983m  1396:n1      = 357.4367m  1397:in_b    = 559.9983m
 + 1399:n1      = 357.4367m  1400:in_b    = 559.9983m  1402:n1      = 559.9966m
 + 1403:in_b    =   1.0294u  1405:n1      =  42.6847u  1406:in_b    = 559.9983m
 + 1408:n1      = 559.9966m  1409:in_b    =   1.0294u  1411:n1      =  42.6847u
 + 1412:in_b    = 559.9983m  1414:n1      = 559.9966m  1415:in_b    =   1.0294u
 + 1417:n1      =  42.6847u  1418:in_b    = 559.9983m  1420:n1      = 559.9966m
 + 1421:in_b    =   1.0294u  1423:n1      =  42.6847u  1424:in_b    = 559.9983m
 + 1426:n1      = 357.4367m  1427:in_b    = 559.9983m  1429:n1      = 559.9985m
 + 1430:in_b    = 559.9983m  1432:n1      = 357.4367m  1433:in_b    = 559.9983m
 + 1435:n1      = 559.9985m  1436:in_b    = 559.9983m  1438:n1      = 559.9966m
 + 1439:in_b    =   1.0294u  1441:n1      =  42.6847u  1442:in_b    = 559.9983m
 + 1444:n1      =  42.6847u  1445:in_b    = 559.9983m  1447:n1      = 559.9966m
 + 1448:in_b    =   1.0294u  1450:n1      = 357.4367m  1451:in_b    = 559.9983m
 + 1453:n1      = 559.9985m  1454:in_b    = 559.9983m  1456:n1      = 559.9985m
 + 1457:in_b    = 559.9983m  1459:n1      = 357.4367m  1460:in_b    = 559.9983m
 + 1462:n1      =  42.6847u  1463:in_b    = 559.9983m  1465:n1      = 559.9966m
 + 1466:in_b    =   1.0294u  1468:n1      =  42.6847u  1469:in_b    = 559.9983m
 + 1471:n1      =  42.6847u  1472:in_b    = 559.9983m  1474:n1      = 559.9966m
 + 1475:in_b    =   1.0294u  1477:n1      =  42.6847u  1478:in_b    = 559.9983m
 + 1480:n1      = 559.9966m  1481:in_b    =   1.0294u  1483:n1      =  42.6847u
 + 1484:in_b    = 559.9983m  1486:n1      = 559.9966m  1487:in_b    =   1.0294u
 + 1489:n1      =  42.6847u  1490:in_b    = 559.9983m  1492:n1      =  42.6847u
 + 1493:in_b    = 559.9983m  1495:n1      = 559.9966m  1496:in_b    =   1.0294u
 + 1498:n1      = 559.9985m  1499:in_b    = 559.9983m  1501:n1      = 357.4367m
 + 1502:in_b    = 559.9983m  1504:n1      = 559.9985m  1505:in_b    = 559.9983m
 + 1507:n1      = 357.4367m  1508:in_b    = 559.9983m  1510:n1      =  42.6847u
 + 1511:in_b    = 559.9983m  1513:n1      =  42.6847u  1514:in_b    = 559.9983m
 + 1516:n1      =  42.6847u  1517:in_b    = 559.9983m  1519:n1      = 559.9966m
 + 1520:in_b    =   1.0294u  1522:n1      = 357.4367m  1523:in_b    = 559.9983m
 + 1525:n1      = 357.4367m  1526:in_b    = 559.9983m  1528:n1      = 357.4367m
 + 1529:in_b    = 559.9983m  1531:n1      = 357.4367m  1532:in_b    = 559.9983m
 + 1534:n1      = 559.9985m  1535:in_b    = 559.9983m  1537:n1      = 559.9985m
 + 1538:in_b    = 559.9983m  1540:n1      = 559.9985m  1541:in_b    = 559.9983m
 + 1543:n1      = 559.9985m  1544:in_b    = 559.9983m  1546:n1      = 559.9966m
 + 1547:in_b    =   1.0294u  1549:n1      =  42.6847u  1550:in_b    = 559.9983m
[...]
 + 1196:in_b    = 125.9384a  1198:n1      =  22.5600a  1199:in_b    = 125.9384a
 + 1201:n1      =  22.5600a  1202:in_b    = 125.9384a  1204:n1      =  37.2528a
 + 1205:in_b    = 125.9384a  1207:n1      =  37.2528a  1208:in_b    = 125.9384a
 + 1210:n1      =  22.5623a  1211:in_b    = 125.9384a  1213:n1      =  22.5623a
 + 1214:in_b    = 125.9384a  1216:n1      =  51.9376a  1217:in_b    = 126.2702a
 + 1219:n1      =  22.5623a  1220:in_b    = 125.9384a  1222:n1      =  22.5600a
 + 1223:in_b    = 125.9384a  1225:n1      =  22.5600a  1226:in_b    = 125.9384a
 + 1228:n1      =  37.2528a  1229:in_b    = 125.9384a  1231:n1      =  37.2528a
 + 1232:in_b    = 125.9384a  1234:n1      =  22.5600a  1235:in_b    = 125.9384a
 + 1237:n1      =  37.2528a  1238:in_b    = 125.9384a  1240:n1      =  22.5600a
 + 1241:in_b    = 125.9384a  1243:n1      =  37.2528a  1244:in_b    = 125.9384a
 + 1246:n1      =  22.5623a  1247:in_b    = 125.9384a  1249:n1      =  51.9376a
 + 1250:in_b    = 126.2702a  1252:n1      =  51.9376a  1253:in_b    = 126.2702a
 + 1255:n1      =  22.5623a  1256:in_b    = 125.9384a  1258:n1      =  22.5623a
 + 1259:in_b    = 125.9384a  1261:n1      =  51.9376a  1262:in_b    = 126.2702a
 + 1264:n1      =  22.5623a  1265:in_b    = 125.9384a  1267:n1      =  22.5623a
 + 1268:in_b    = 125.9384a  1270:n1      =  37.2528a  1271:in_b    = 125.9384a
 + 1273:n1      =  37.2528a  1274:in_b    = 125.9384a  1276:n1      =  22.5600a
 + 1277:in_b    = 125.9384a  1279:n1      =  37.2528a  1280:in_b    = 125.9384a
 + 1282:n1      =  51.9376a  1283:in_b    = 126.2702a  1285:n1      =  51.9376a
 + 1286:in_b    = 126.2702a  1288:n1      =  22.5623a  1289:in_b    = 125.9384a
 + 1291:n1      =  51.9376a  1292:in_b    = 126.2702a  1294:n1      =  22.5600a
 + 1295:in_b    = 125.9384a  1297:n1      =  37.2528a  1298:in_b    = 125.9384a
 + 1300:n1      =  22.5600a  1301:in_b    = 125.9384a  1303:n1      =  37.2528a
 + 1304:in_b    = 125.9384a  1306:n1      =  22.5623a  1307:in_b    = 125.9384a
 + 1309:n1      =  22.5623a  1310:in_b    = 125.9384a  1312:n1      =  22.5623a
 + 1313:in_b    = 125.9384a  1315:n1      =  22.5623a  1316:in_b    = 125.9384a
 + 1318:n1      =  22.5600a  1319:in_b    = 125.9384a  1321:n1      =  37.2528a
 + 1322:in_b    = 125.9384a  1324:n1      =  37.2528a  1325:in_b    = 125.9384a
 + 1327:n1      =  22.5600a  1328:in_b    = 125.9384a  1330:n1      =  22.5600a
 + 1331:in_b    = 125.9384a  1333:n1      =  22.5600a  1334:in_b    = 125.9384a
 + 1336:n1      =  37.2528a  1337:in_b    = 125.9384a  1339:n1      =  37.2528a
 + 1340:in_b    = 125.9384a  1342:n1      =  37.2528a  1343:in_b    = 125.9384a
 + 1345:n1      =  22.5600a  1346:in_b    = 125.9384a  1348:n1      =  22.5600a
 + 1349:in_b    = 125.9384a  1351:n1      =  22.5600a  1352:in_b    = 125.9384a
 + 1354:n1      =  37.2528a  1355:in_b    = 125.9384a  1357:n1      =  22.5600a
 + 1358:in_b    = 125.9384a  1360:n1      =  37.2528a  1361:in_b    = 125.9384a
 + 1363:n1      =  37.2528a  1364:in_b    = 125.9384a  1366:n1      =  51.9376a
 + 1367:in_b    = 126.2702a  1369:n1      =  51.9376a  1370:in_b    = 126.2702a
 + 1372:n1      =  22.5623a  1373:in_b    = 125.9384a  1375:n1      =  51.9376a
 + 1376:in_b    = 126.2702a  1378:n1      =  22.5623a  1379:in_b    = 125.9384a
 + 1381:n1      =  22.5623a  1382:in_b    = 125.9384a  1384:n1      =  22.5623a
 + 1385:in_b    = 125.9384a  1387:n1      =  51.9376a  1388:in_b    = 126.2702a
 + 1390:n1      =  22.5600a  1391:in_b    = 125.9384a  1393:n1      =  37.2528a
 + 1394:in_b    = 125.9384a  1396:n1      =  22.5600a  1397:in_b    = 125.9384a
 + 1399:n1      =  22.5600a  1400:in_b    = 125.9384a  1402:n1      =  51.9376a
 + 1403:in_b    = 126.2702a  1405:n1      =  22.5623a  1406:in_b    = 125.9384a
 + 1408:n1      =  51.9376a  1409:in_b    = 126.2702a  1411:n1      =  22.5623a
 + 1412:in_b    = 125.9384a  1414:n1      =  51.9376a  1415:in_b    = 126.2702a
 + 1417:n1      =  22.5623a  1418:in_b    = 125.9384a  1420:n1      =  51.9376a
 + 1421:in_b    = 126.2702a  1423:n1      =  22.5623a  1424:in_b    = 125.9384a
 + 1426:n1      =  22.5600a  1427:in_b    = 125.9384a  1429:n1      =  37.2528a
 + 1430:in_b    = 125.9384a  1432:n1      =  22.5600a  1433:in_b    = 125.9384a
 + 1435:n1      =  37.2528a  1436:in_b    = 125.9384a  1438:n1      =  51.9376a
 + 1439:in_b    = 126.2702a  1441:n1      =  22.5623a  1442:in_b    = 125.9384a
 + 1444:n1      =  22.5623a  1445:in_b    = 125.9384a  1447:n1      =  51.9376a
 + 1448:in_b    = 126.2702a  1450:n1      =  22.5600a  1451:in_b    = 125.9384a
 + 1453:n1      =  37.2528a  1454:in_b    = 125.9384a  1456:n1      =  37.2528a
 + 1457:in_b    = 125.9384a  1459:n1      =  22.5600a  1460:in_b    = 125.9384a
 + 1462:n1      =  22.5623a  1463:in_b    = 125.9384a  1465:n1      =  51.9376a
 + 1466:in_b    = 126.2702a  1468:n1      =  22.5623a  1469:in_b    = 125.9384a
 + 1471:n1      =  22.5623a  1472:in_b    = 125.9384a  1474:n1      =  51.9376a
 + 1475:in_b    = 126.2702a  1477:n1      =  22.5623a  1478:in_b    = 125.9384a
 + 1480:n1      =  51.9376a  1481:in_b    = 126.2702a  1483:n1      =  22.5623a
 + 1484:in_b    = 125.9384a  1486:n1      =  51.9376a  1487:in_b    = 126.2702a
 + 1489:n1      =  22.5623a  1490:in_b    = 125.9384a  1492:n1      =  22.5623a
 + 1493:in_b    = 125.9384a  1495:n1      =  51.9376a  1496:in_b    = 126.2702a
 + 1498:n1      =  37.2528a  1499:in_b    = 125.9384a  1501:n1      =  22.5600a
 + 1502:in_b    = 125.9384a  1504:n1      =  37.2528a  1505:in_b    = 125.9384a
 + 1507:n1      =  22.5600a  1508:in_b    = 125.9384a  1510:n1      =  22.5623a
 + 1511:in_b    = 125.9384a  1513:n1      =  22.5623a  1514:in_b    = 125.9384a
 + 1516:n1      =  22.5623a  1517:in_b    = 125.9384a  1519:n1      =  51.9376a
 + 1520:in_b    = 126.2702a  1522:n1      =  22.5600a  1523:in_b    = 125.9384a
 + 1525:n1      =  22.5600a  1526:in_b    = 125.9384a  1528:n1      =  22.5600a
 + 1529:in_b    = 125.9384a  1531:n1      =  22.5600a  1532:in_b    = 125.9384a
 + 1534:n1      =  37.2528a  1535:in_b    = 125.9384a  1537:n1      =  37.2528a
 + 1538:in_b    = 125.9384a  1540:n1      =  37.2528a  1541:in_b    = 125.9384a
 + 1543:n1      =  37.2528a  1544:in_b    = 125.9384a  1546:n1      =  51.9376a
 + 1547:in_b    = 126.2702a  1549:n1      =  22.5623a  1550:in_b    = 125.9384a
 + 1552:n1      =  51.9376a  1553:in_b    = 126.2702a  1555:n1      =  51.9376a
 + 1556:in_b    = 126.2702a  1558:n1      =  22.5600a  1559:in_b    = 125.9384a
 + 1561:n1      =  22.5600a  1562:in_b    = 125.9384a  1564:n1      =  37.2528a
 + 1565:in_b    = 125.9384a  1567:n1      =  37.2528a  1568:in_b    = 125.9384a
 + 1570:n1      =  51.9376a  1571:in_b    = 126.2702a  1573:n1      =  51.9376a
 + 1574:in_b    = 126.2702a  1576:n1      =  22.5623a  1577:in_b    = 125.9384a
 + 1579:n1      =  22.5623a  1580:in_b    = 125.9384a  1582:n1      =  37.2528a
 + 1583:in_b    = 125.9384a  1585:n1      =  37.2528a  1586:in_b    = 125.9384a
 + 1588:n1      =  37.2528a  1589:in_b    = 125.9384a  1591:n1      =  22.5600a
 + 1592:in_b    = 125.9384a  1594:n1      =  22.5623a  1595:in_b    = 125.9384a
 + 1597:n1      =  22.5623a  1598:in_b    = 125.9384a  1600:n1      =  22.5623a
 + 1601:in_b    = 125.9384a  1603:n1      =  22.5623a  1604:in_b    = 125.9384a
 + 1606:n1      =  22.5600a  1607:in_b    = 125.9384a  1609:n1      =  37.2528a
 + 1610:in_b    = 125.9384a  1612:n1      =  37.2528a  1613:in_b    = 125.9384a
 + 1615:n1      =  22.5600a  1616:in_b    = 125.9384a  1618:n1      =  22.5600a
 + 1619:in_b    = 125.9384a  1621:n1      =  22.5600a  1622:in_b    = 125.9384a
 + 1624:n1      =  22.5600a  1625:in_b    = 125.9384a  1627:n1      =  22.5600a
 + 1628:in_b    = 125.9384a  1630:n1      =  51.9376a  1631:in_b    = 126.2702a
 + 1633:n1      =  51.9376a  1634:in_b    = 126.2702a  1636:n1      =  51.9376a
 + 1637:in_b    = 126.2702a  1639:n1      =  51.9376a  1640:in_b    = 126.2702a
 + 1642:n1      =  51.9376a  1643:in_b    = 126.2702a  1645:n1      =  22.5623a
 + 1646:in_b    = 125.9384a  1648:n1      =  22.5623a  1649:in_b    = 125.9384a
 + 1651:n1      =  51.9376a  1652:in_b    = 126.2702a  1654:n1      =  37.2528a
 + 1655:in_b    = 125.9384a  1657:n1      =  22.5600a  1658:in_b    = 125.9384a
 + 1660:n1      =  22.5600a  1661:in_b    = 125.9384a  1663:n1      =  22.5600a
 + 1664:in_b    = 125.9384a  1666:n1      =  51.9376a  1667:in_b    = 126.2702a
 + 1669:n1      =  51.9376a  1670:in_b    = 126.2702a  1672:n1      =  22.5623a
 + 1673:in_b    = 125.9384a  1675:n1      =  51.9376a  1676:in_b    = 126.2702a
 + 1678:n1      =  37.2528a  1679:in_b    = 125.9384a  1681:n1      =  37.2528a
 + 1682:in_b    = 125.9384a  1684:n1      =  37.2528a  1685:in_b    = 125.9384a
 + 1687:n1      =  22.5600a  1688:in_b    = 125.9384a  1690:n1      =  22.5623a
 + 1691:in_b    = 125.9384a  1693:n1      =  51.9376a  1694:in_b    = 126.2702a
 + 1696:n1      =  22.5623a  1697:in_b    = 125.9384a  1699:n1      =  51.9376a
 + 1700:in_b    = 126.2702a  1702:n1      =  22.5600a  1703:in_b    = 125.9384a
 + 1705:n1      =  22.5600a  1706:in_b    = 125.9384a  1708:n1      =  22.5600a
 + 1709:in_b    = 125.9384a  1711:n1      =  37.2528a  1712:in_b    = 125.9384a
 + 1714:n1      =  37.2528a  1715:in_b    = 125.9384a  1717:n1      =  37.2528a
 + 1718:in_b    = 125.9384a  1720:n1      =  37.2528a  1721:in_b    = 125.9384a
 + 1723:n1      =  22.5600a  1724:in_b    = 125.9384a  1726:n1      =  37.2528a
 + 1727:in_b    = 125.9384a  1729:n1      =  37.2528a  1730:in_b    = 125.9384a
 + 1732:n1      =  37.2528a  1733:in_b    = 125.9384a  1735:n1      =  22.5600a
 + 1736:in_b    = 125.9384a  1738:n1      =  37.2528a  1739:in_b    = 125.9384a
 + 1741:n1      =  37.2528a  1742:in_b    = 125.9384a  1744:n1      =  37.2528a
 + 1745:in_b    = 125.9384a  1747:n1      =  22.5600a  1748:in_b    = 125.9384a
 + 1750:n1      =  51.9376a  1751:in_b    = 126.2702a  1753:n1      =  51.9376a
 + 1754:in_b    = 126.2702a  1756:n1      =  51.9376a  1757:in_b    = 126.2702a
 + 1759:n1      =  22.5623a  1760:in_b    = 125.9384a  1762:n1      =  51.9376a
 + 1763:in_b    = 126.2702a  1765:n1      =  22.5623a  1766:in_b    = 125.9384a
 + 1768:n1      =  22.5623a  1769:in_b    = 125.9384a  1771:n1      =  22.5623a
 + 1772:in_b    = 125.9384a  1774:n1      =  22.5600a  1775:in_b    = 125.9384a
 + 1777:n1      =  22.5600a  1778:in_b    = 125.9384a  1780:n1      =  22.5600a
 + 1781:in_b    = 125.9384a  1783:n1      =  22.5600a  1784:in_b    = 125.9384a
 + 1786:n1      =  22.5623a  1787:in_b    = 125.9384a  1789:n1      =  22.5623a
 + 1790:in_b    = 125.9384a  1792:n1      =  51.9376a  1793:in_b    = 126.2702a
 + 1795:n1      =  22.5623a  1796:in_b    = 125.9384a  1798:n1      =  51.9376a
 + 1799:in_b    = 126.2702a  1801:n1      =  22.5623a  1802:in_b    = 125.9384a
 + 1804:n1      =  22.5623a  1805:in_b    = 125.9384a  1807:n1      =  51.9376a
 + 1808:in_b    = 126.2702a  1810:n1      =  22.5600a  1811:in_b    = 125.9384a
 + 1813:n1      =  22.5600a  1814:in_b    = 125.9384a  1816:n1      =  37.2528a
 + 1817:in_b    = 125.9384a  1819:n1      =  37.2528a  1820:in_b    = 125.9384a
 + 1822:n1      =  22.5623a  1823:in_b    = 125.9384a  1825:n1      =  51.9376a
 + 1826:in_b    = 126.2702a  1828:n1      =  22.5623a  1829:in_b    = 125.9384a
 + 1831:n1      =  51.9376a  1832:in_b    = 126.2702a  1834:n1      =  37.2528a
 + 1835:in_b    = 125.9384a  1837:n1      =  37.2528a  1838:in_b    = 125.9384a
 + 1840:n1      =  22.5600a  1841:in_b    = 125.9384a  1843:n1      =  37.2528a
 + 1844:in_b    = 125.9384a  1846:n1      =  22.5623a  1847:in_b    = 125.9384a
 + 1849:n1      =  22.5623a  1850:in_b    = 125.9384a  1852:n1      =  51.9376a
 + 1853:in_b    = 126.2702a  1855:n1      =  22.5623a  1856:in_b    = 125.9384a
 + 1858:n1      =  22.5623a  1859:in_b    = 125.9384a  1861:n1      =  22.5623a
 + 1862:in_b    = 125.9384a  1864:n1      =  51.9376a  1865:in_b    = 126.2702a
 + 1867:n1      =  51.9376a  1868:in_b    = 126.2702a  1870:n1      =  51.9376a
 + 1871:in_b    = 126.2702a  1873:n1      =  22.5623a  1874:in_b    = 125.9384a
 + 1876:n1      =  51.9376a  1877:in_b    = 126.2702a  1879:n1      =  22.5623a
 + 1880:in_b    = 125.9384a  1882:n1      =  22.5600a  1883:in_b    = 125.9384a
 + 1885:n1      =  22.5600a  1886:in_b    = 125.9384a  1888:n1      =  37.2528a
 + 1889:in_b    = 125.9384a  1891:n1      =  22.5600a  1892:in_b    = 125.9384a
 + 1894:n1      =  51.9376a  1895:in_b    = 126.2702a  1897:n1      =  22.5623a
 + 1898:in_b    = 125.9384a  1900:n1      =  22.5623a  1901:in_b    = 125.9384a
 + 1903:n1      =  22.5623a  1904:in_b    = 125.9384a  1906:n1      =  22.5600a
 + 1907:in_b    = 125.9384a  1909:n1      =  22.5600a  1910:in_b    = 125.9384a
 + 1912:n1      =  22.5600a  1913:in_b    = 125.9384a  1915:n1      =  22.5600a
 + 1916:in_b    = 125.9384a  1918:n1      =  37.2528a  1919:in_b    = 125.9384a
 + 1921:n1      =  37.2528a  1922:in_b    = 125.9384a  1924:n1      =  37.2528a
 + 1925:in_b    = 125.9384a  1927:n1      =  37.2528a  1928:in_b    = 125.9384a
 + 1930:n1      =  22.5623a  1931:in_b    = 125.9384a  1933:n1      =  22.5623a
 + 1934:in_b    = 125.9384a  1936:n1      =  51.9376a  1937:in_b    = 126.2702a
 + 1939:n1      =  22.5623a  1940:in_b    = 125.9384a  1942:n1      =  37.2528a
 + 1943:in_b    = 125.9384a  1945:n1      =  22.5600a  1946:in_b    = 125.9384a
 + 1948:n1      =  37.2528a  1949:in_b    = 125.9384a  1951:n1      =  37.2528a
 + 1952:in_b    = 125.9384a  1954:n1      =  22.5623a  1955:in_b    = 125.9384a
 + 1957:n1      =  22.5623a  1958:in_b    = 125.9384a  1960:n1      =  51.9376a
 + 1961:in_b    = 126.2702a  1963:n1      =  51.9376a  1964:in_b    = 126.2702a
 + 1966:n1      =  37.2528a  1967:in_b    = 125.9384a  1969:n1      =  22.5600a
 + 1970:in_b    = 125.9384a  1972:n1      =  22.5600a  1973:in_b    = 125.9384a
 + 1975:n1      =  37.2528a  1976:in_b    = 125.9384a  1978:n1      =  22.5623a
 + 1979:in_b    = 125.9384a  1981:n1      =  51.9376a  1982:in_b    = 126.2702a
 + 1984:n1      =  22.5623a  1985:in_b    = 125.9384a  1987:n1      =  51.9376a
 + 1988:in_b    = 126.2702a  1990:n1      =  37.2528a  1991:in_b    = 125.9384a
 + 1993:n1      =  22.5600a  1994:in_b    = 125.9384a  1996:n1      =  22.5600a
 + 1997:in_b    = 125.9384a  1999:n1      =  37.2528a  2000:in_b    = 125.9384a
 + 2002:n1      =  37.2528a  2003:in_b    = 125.9384a  2005:n1      =  22.5600a
 + 2006:in_b    = 125.9384a  2008:n1      =  22.5600a  2009:in_b    = 125.9384a
 + 2011:n1      =  37.2528a  2012:in_b    = 125.9384a  2014:n1      =  22.5623a
 + 2015:in_b    = 125.9384a  2017:n1      =  51.9376a  2018:in_b    = 126.2702a
 + 2020:n1      =  51.9376a  2021:in_b    = 126.2702a  2023:n1      =  51.9376a
 + 2024:in_b    = 126.2702a  2026:n1      =  22.5623a  2027:in_b    = 125.9384a
 + 2029:n1      =  22.5623a  2030:in_b    = 125.9384a  2032:n1      =  22.5623a
 + 2033:in_b    = 125.9384a  2035:n1      =  51.9376a  2036:in_b    = 126.2702a
 + 2038:n1      =  22.5600a  2039:in_b    = 125.9384a  2041:n1      =  22.5600a
 + 2042:in_b    = 125.9384a  2044:n1      =  37.2528a  2045:in_b    = 125.9384a
 + 2047:n1      =  22.5600a  2048:in_b    = 125.9384a  2050:n1      =  22.5623a
 + 2051:in_b    = 125.9384a  2053:n1      =  22.5623a  2054:in_b    = 125.9384a
 + 2056:n1      =  22.5623a  2057:in_b    = 125.9384a  2059:n1      =  22.5623a
 + 2060:in_b    = 125.9384a  2062:n1      =  22.5600a  2063:in_b    = 125.9384a
 + 2065:n1      =  22.5600a  2066:in_b    = 125.9384a  2068:n1      =  22.5600a
 + 2069:in_b    = 125.9384a  2071:n1      =  22.5600a  2072:in_b    = 125.9384a
 + 2074:n1      =  22.5623a  2075:in_b    = 125.9384a  2077:n1      =  51.9376a
 + 2078:in_b    = 126.2702a  2080:n1      =  51.9376a  2081:in_b    = 126.2702a
 + 2083:n1      =  22.5623a  2084:in_b    = 125.9384a  2086:n1      =  37.2528a
 + 2087:in_b    = 125.9384a  2089:n1      =  22.5600a  2090:in_b    = 125.9384a
 + 2092:n1      =  22.5600a  2093:in_b    = 125.9384a  2095:n1      =  22.5600a
 + 2096:in_b    = 125.9384a  2098:n1      =  22.5600a  2099:in_b    = 125.9384a
 + 2101:n1      =  37.2528a  2102:in_b    = 125.9384a  2104:n1      =  22.5600a
 + 2105:in_b    = 125.9384a  2107:n1      =  22.5600a  2108:in_b    = 125.9384a
 + 2110:n1      =  37.2528a  2111:in_b    = 125.9384a  2113:n1      =  22.5600a
 + 2114:in_b    = 125.9384a  2116:n1      =  22.5600a  2117:in_b    = 125.9384a
 + 2119:n1      =  22.5600a  2120:in_b    = 125.9384a  2122:n1      =  37.2528a
 + 2123:in_b    = 125.9384a  2125:n1      =  22.5600a  2126:in_b    = 125.9384a
 + 2128:n1      =  37.2528a  2129:in_b    = 125.9384a  2131:n1      =  37.2528a
 + 2132:in_b    = 125.9384a  2134:n1      =  22.5623a  2135:in_b    = 125.9384a
 + 2137:n1      =  51.9376a  2138:in_b    = 126.2702a  2140:n1      =  51.9376a
 + 2141:in_b    = 126.2702a  2143:n1      =  22.5623a  2144:in_b    = 125.9384a
 + 2146:n1      =  51.9376a  2147:in_b    = 126.2702a  2149:n1      =  51.9376a
 + 2150:in_b    = 126.2702a  2152:n1      =  22.5623a  2153:in_b    = 125.9384a
 + 2155:n1      =  51.9376a  2156:in_b    = 126.2702a  2158:n1      =  22.5600a
 + 2159:in_b    = 125.9384a  2161:n1      =  22.5600a  2162:in_b    = 125.9384a
 + 2164:n1      =  37.2528a  2165:in_b    = 125.9384a  2167:n1      =  37.2528a
 + 2168:in_b    = 125.9384a  2170:n1      =  51.9376a  2171:in_b    = 126.2702a
 + 2173:n1      =  22.5623a  2174:in_b    = 125.9384a  2176:n1      =  51.9376a
 + 2177:in_b    = 126.2702a  2179:n1      =  22.5623a  2180:in_b    = 125.9384a
 + 2182:n1      =  51.9376a  2183:in_b    = 126.2702a  2185:n1      =  51.9376a
 + 2186:in_b    = 126.2702a  2188:n1      =  22.5623a  2189:in_b    = 125.9384a
 + 2191:n1      =  51.9376a  2192:in_b    = 126.2702a  2194:n1      =  37.2528a
 + 2195:in_b    = 125.9384a  2197:n1      =  37.2528a  2198:in_b    = 125.9384a
 + 2200:n1      =  22.5600a  2201:in_b    = 125.9384a  2203:n1      =  37.2528a
 + 2204:in_b    = 125.9384a

 
  ---  Invoke X Mode  ---
 HSolve ... 
  
 NDD 221
 Running 1 thread.
  
 Auto-select transient simulation algorithm
 .  
 **error** stop simulation by signal SIGINT = 2

 ******  
 .title dic_final

 ****** job statistics summary tnom=  25.000 temp=  25.000 ******
  
 ******  Machine Information  ******
 CPU:
 model name	: AMD EPYC 7763 64-Core Processor
 cpu MHz	: 2450.000
  
 OS:
 Linux version 3.10.0-1160.88.1.el7.x86_64 (mockbuild@kbuilder.bsys.centos.org) (gcc version 4.8.5 20150623 (Red Hat 4.8.5-44) (GCC) ) #1 SMP Tue Mar 7 15:41:52 UTC 2023


  ******  HSPICE Threads Information  ******

  Command Line Threads Count :     1
  Available CPU Count        :   256
  Actual Threads Count       :     1


  ******  Circuit Statistics  ******
  # nodes       =  269230 # elements   =  597806
  # resistors   =  250485 # capacitors =  317116 # inductors   =       0
  # mutual_inds =       0 # vccs       =       0 # vcvs        =       0
  # cccs        =       0 # ccvs       =       0 # volt_srcs   =       4
  # curr_srcs   =       0 # diodes     =       0 # bjts        =       0
  # jfets       =       0 # mosfets    =   30150 # U elements  =       0
  # T elements  =       0 # W elements =       0 # B elements  =       0
  # S elements  =       0 # P elements =       0 # va device   =       0
  # vector_srcs =      51 # N elements =       0


  ******  Runtime Statistics (seconds)  ******

  analysis           time    # points   tot. iter  conv.iter
  op point           6.57           1          28
  transient          0.00         151           0           0 rev=         0
  readin             0.28
  errchk             2.22
  setup              4.10
  output             0.00


           peak memory used       1453.72 megabytes
           total cpu time          196.79 seconds
           total elapsed time      196.95 seconds
           job started at     10:37:09 12/31/2024
           job ended   at     10:40:26 12/31/2024
 lic: Release hspice token(s) 
 lic: total license checkout elapse time:        0.14(s)
