 ****** HSPICE -- Q-2020.03-SP2-2 linux64 (Nov  1 2020) ******                  
  Copyright (c) 1986 - 2024 by Synopsys, Inc. All Rights Reserved.              
  This software and the associated documentation are proprietary
  to Synopsys, Inc. This software may only be used in accordance
  with the terms and conditions of a written license agreement with
  Synopsys, Inc. All other use, reproduction, or distribution of
  this software is strictly prohibited.
  Input File: multiplier.sp                                                     
  Command line options: /RAID2/cad/synopsys/hspice/2020.03-sp2-2/hspice/linux64/hspice multiplier.sp -o multiplier.lis
  Start time: Thu Dec 19 22:00:58 2024
 lic:  
 lic: FLEXlm: SDK_12.6 
 lic: USER:   icst_dic112          HOSTNAME: ee25 
 lic: HOSTID: "d85ed3efc15f"       PID:      158574 
 lic: Using FLEXlm license file: 
 lic: 26585@lshc 
 lic: Checkout 1 hspice 
 lic: License/Maintenance for hspice will expire on 14-may-2025/2024.09 
 lic: 353(in_use)/1100(total) FLOATING license(s) on SERVER 26585@lshc 
 lic:   
  **warning** (multiplier.sp:596) Global net name "bl" in subckt pin list. The pin will be connected to the local net. Recommend to not use global net names in subckt pin lists.
 **info** set option symb=1 internally to help for convergence.
 *****************************************************************
 ******  option summary
 ******
 runlvl  = 3         bypass  = 2.0000    
  Opening plot unit= 15
 file=multiplier.pa0

1****** HSPICE -- Q-2020.03-SP2-2 linux64 (Nov  1 2020) ******                  
 ******  
 .title dic_final

 ****** operating point information tnom=  25.000 temp=  25.000 ******
 ****** operating point status is voltage   simulation time is     0.     
       node    =voltage         node    =voltage         node    =voltage

 +   0:bl      = 350.0000m    0:blb     = 350.0000m    0:i1101   =   0.     
 +   0:i1102   =   0.         0:i1103   =   0.         0:i1104   =   0.     
 +   0:i111    = 700.0000m    0:i1111   =   0.         0:i1112   =   0.     
 +   0:i1113   = 700.0000m    0:i1114   =   0.         0:i112    =   0.     
 +   0:i1121   = 700.0000m    0:i1122   = 700.0000m    0:i1123   =   0.     
 +   0:i1124   =   0.         0:i113    = 700.0000m    0:i1131   =   0.     
 +   0:i1132   = 700.0000m    0:i1133   =   0.         0:i1134   =   0.     
 +   0:i114    = 700.0000m    0:i1141   =   0.         0:i1142   =   0.     
 +   0:i1143   = 700.0000m    0:i1144   =   0.         0:i1151   = 700.0000m
 +   0:i1152   =   0.         0:i1153   = 700.0000m    0:i1154   =   0.     
 +   0:i1161   = 700.0000m    0:i1162   = 700.0000m    0:i1163   = 700.0000m
 +   0:i1164   = 700.0000m    0:i1171   =   0.         0:i1172   = 700.0000m
 +   0:i1173   =   0.         0:i1174   = 700.0000m    0:i1181   = 700.0000m
 +   0:i1182   =   0.         0:i1183   = 700.0000m    0:i1184   = 700.0000m
 +   0:i1191   =   0.         0:i1192   =   0.         0:i1193   =   0.     
 +   0:i1194   = 700.0000m    0:i1201   =   0.         0:i1202   =   0.     
 +   0:i1203   = 700.0000m    0:i1204   =   0.         0:i121    = 700.0000m
 +   0:i1211   =   0.         0:i1212   =   0.         0:i1213   =   0.     
 +   0:i1214   =   0.         0:i122    =   0.         0:i1221   = 700.0000m
 +   0:i1222   = 700.0000m    0:i1223   = 700.0000m    0:i1224   = 700.0000m
 +   0:i123    = 700.0000m    0:i1231   =   0.         0:i1232   =   0.     
 +   0:i1233   = 700.0000m    0:i1234   = 700.0000m    0:i124    =   0.     
 +   0:i1241   =   0.         0:i1242   = 700.0000m    0:i1243   = 700.0000m
 +   0:i1244   =   0.         0:i1251   =   0.         0:i1252   = 700.0000m
 +   0:i1253   =   0.         0:i1254   =   0.         0:i1261   =   0.     
 +   0:i1262   =   0.         0:i1263   = 700.0000m    0:i1264   = 700.0000m
 +   0:i1271   =   0.         0:i1272   =   0.         0:i1273   = 700.0000m
 +   0:i1274   =   0.         0:i1281   =   0.         0:i1282   =   0.     
 +   0:i1283   =   0.         0:i1284   = 700.0000m    0:i1291   =   0.     
 +   0:i1292   =   0.         0:i1293   = 700.0000m    0:i1294   = 700.0000m
 +   0:i1301   = 700.0000m    0:i1302   = 700.0000m    0:i1303   =   0.     
 +   0:i1304   = 700.0000m    0:i131    =   0.         0:i1311   = 700.0000m
 +   0:i1312   =   0.         0:i1313   =   0.         0:i1314   = 700.0000m
 +   0:i132    = 700.0000m    0:i1321   =   0.         0:i1322   =   0.     
 +   0:i1323   =   0.         0:i1324   =   0.         0:i133    =   0.     
 +   0:i134    = 700.0000m    0:i141    =   0.         0:i142    = 700.0000m
 +   0:i143    =   0.         0:i144    =   0.         0:i151    = 700.0000m
 +   0:i152    = 700.0000m    0:i153    =   0.         0:i154    = 700.0000m
 +   0:i161    =   0.         0:i162    = 700.0000m    0:i163    =   0.     
 +   0:i164    =   0.         0:i171    =   0.         0:i172    =   0.     
 +   0:i173    = 700.0000m    0:i174    = 700.0000m    0:i181    =   0.     
 +   0:i182    = 700.0000m    0:i183    = 700.0000m    0:i184    =   0.     
 +   0:i191    = 700.0000m    0:i192    = 700.0000m    0:i193    = 700.0000m
 +   0:i194    =   0.         0:i2101   = 700.0000m    0:i2102   = 700.0000m
 +   0:i2103   = 700.0000m    0:i2104   = 700.0000m    0:i211    =   0.     
 +   0:i2111   = 700.0000m    0:i2112   = 700.0000m    0:i2113   = 700.0000m
 +   0:i2114   =   0.         0:i212    = 700.0000m    0:i2121   = 700.0000m
 +   0:i2122   =   0.         0:i2123   =   0.         0:i2124   = 700.0000m
 +   0:i213    = 700.0000m    0:i2131   = 700.0000m    0:i2132   = 700.0000m
 +   0:i2133   =   0.         0:i2134   = 700.0000m    0:i214    =   0.     
 +   0:i2141   = 700.0000m    0:i2142   = 700.0000m    0:i2143   =   0.     
 +   0:i2144   =   0.         0:i2151   = 700.0000m    0:i2152   =   0.     
 +   0:i2153   =   0.         0:i2154   = 700.0000m    0:i2161   = 700.0000m
 +   0:i2162   =   0.         0:i2163   =   0.         0:i2164   =   0.     
 +   0:i2171   = 700.0000m    0:i2172   =   0.         0:i2173   =   0.     
 +   0:i2174   =   0.         0:i2181   =   0.         0:i2182   =   0.     
 +   0:i2183   = 700.0000m    0:i2184   =   0.         0:i2191   = 700.0000m
 +   0:i2192   =   0.         0:i2193   = 700.0000m    0:i2194   =   0.     
 +   0:i2201   =   0.         0:i2202   = 700.0000m    0:i2203   =   0.     
 +   0:i2204   =   0.         0:i221    =   0.         0:i2211   = 700.0000m
 +   0:i2212   =   0.         0:i2213   =   0.         0:i2214   = 700.0000m
 +   0:i222    = 700.0000m    0:i2221   =   0.         0:i2222   =   0.     
 +   0:i2223   = 700.0000m    0:i2224   = 700.0000m    0:i223    =   0.     
 +   0:i2231   =   0.         0:i2232   =   0.         0:i2233   =   0.     
 +   0:i2234   = 700.0000m    0:i224    = 700.0000m    0:i2241   = 700.0000m
 +   0:i2242   = 700.0000m    0:i2243   = 700.0000m    0:i2244   = 700.0000m
 +   0:i2251   = 700.0000m    0:i2252   = 700.0000m    0:i2253   = 700.0000m
 +   0:i2254   = 700.0000m    0:i2261   =   0.         0:i2262   = 700.0000m
 +   0:i2263   = 700.0000m    0:i2264   = 700.0000m    0:i2271   = 700.0000m
 +   0:i2272   = 700.0000m    0:i2273   = 700.0000m    0:i2274   =   0.     
 +   0:i2281   =   0.         0:i2282   = 700.0000m    0:i2283   = 700.0000m
 +   0:i2284   = 700.0000m    0:i2291   = 700.0000m    0:i2292   =   0.     
 +   0:i2293   = 700.0000m    0:i2294   = 700.0000m    0:i2301   =   0.     
 +   0:i2302   = 700.0000m    0:i2303   =   0.         0:i2304   = 700.0000m
 +   0:i231    = 700.0000m    0:i2311   =   0.         0:i2312   =   0.     
 +   0:i2313   =   0.         0:i2314   =   0.         0:i232    =   0.     
 +   0:i2321   =   0.         0:i2322   = 700.0000m    0:i2323   = 700.0000m
 +   0:i2324   =   0.         0:i233    = 700.0000m    0:i234    =   0.     
 +   0:i241    = 700.0000m    0:i242    =   0.         0:i243    = 700.0000m
 +   0:i244    =   0.         0:i251    = 700.0000m    0:i252    =   0.     
 +   0:i253    = 700.0000m    0:i254    =   0.         0:i261    = 700.0000m
 +   0:i262    =   0.         0:i263    =   0.         0:i264    =   0.     
 +   0:i271    =   0.         0:i272    = 700.0000m    0:i273    =   0.     
 +   0:i274    =   0.         0:i281    =   0.         0:i282    = 700.0000m
 +   0:i283    = 700.0000m    0:i284    =   0.         0:i291    = 700.0000m
 +   0:i292    = 700.0000m    0:i293    = 700.0000m    0:i294    = 700.0000m
 +   0:i3101   = 700.0000m    0:i3102   =   0.         0:i3103   =   0.     
 +   0:i3104   =   0.         0:i311    = 700.0000m    0:i3111   = 700.0000m
 +   0:i3112   =   0.         0:i3113   =   0.         0:i3114   = 700.0000m
 +   0:i312    = 700.0000m    0:i3121   = 700.0000m    0:i3122   = 700.0000m
 +   0:i3123   =   0.         0:i3124   =   0.         0:i313    = 700.0000m
 +   0:i3131   = 700.0000m    0:i3132   = 700.0000m    0:i3133   =   0.     
 +   0:i3134   = 700.0000m    0:i314    =   0.         0:i3141   = 700.0000m
 +   0:i3142   = 700.0000m    0:i3143   =   0.         0:i3144   =   0.     
 +   0:i3151   =   0.         0:i3152   =   0.         0:i3153   = 700.0000m
 +   0:i3154   = 700.0000m    0:i3161   =   0.         0:i3162   =   0.     
 +   0:i3163   = 700.0000m    0:i3164   =   0.         0:i3171   =   0.     
 +   0:i3172   = 700.0000m    0:i3173   =   0.         0:i3174   = 700.0000m
 +   0:i3181   =   0.         0:i3182   =   0.         0:i3183   =   0.     
 +   0:i3184   =   0.         0:i3191   = 700.0000m    0:i3192   = 700.0000m
 +   0:i3193   =   0.         0:i3194   =   0.         0:i3201   = 700.0000m
 +   0:i3202   =   0.         0:i3203   = 700.0000m    0:i3204   = 700.0000m
 +   0:i321    =   0.         0:i3211   = 700.0000m    0:i3212   =   0.     
 +   0:i3213   =   0.         0:i3214   =   0.         0:i322    =   0.     
 +   0:i3221   = 700.0000m    0:i3222   =   0.         0:i3223   =   0.     
 +   0:i3224   =   0.         0:i323    =   0.         0:i3231   =   0.     
 +   0:i3232   = 700.0000m    0:i3233   = 700.0000m    0:i3234   =   0.     
 +   0:i324    = 700.0000m    0:i3241   =   0.         0:i3242   =   0.     
 +   0:i3243   =   0.         0:i3244   =   0.         0:i3251   = 700.0000m
 +   0:i3252   =   0.         0:i3253   = 700.0000m    0:i3254   =   0.     
 +   0:i3261   =   0.         0:i3262   = 700.0000m    0:i3263   = 700.0000m
 +   0:i3264   =   0.         0:i3271   = 700.0000m    0:i3272   =   0.     
 +   0:i3273   = 700.0000m    0:i3274   =   0.         0:i3281   = 700.0000m
 +   0:i3282   = 700.0000m    0:i3283   = 700.0000m    0:i3284   = 700.0000m
 +   0:i3291   =   0.         0:i3292   = 700.0000m    0:i3293   =   0.     
 +   0:i3294   = 700.0000m    0:i3301   = 700.0000m    0:i3302   = 700.0000m
 +   0:i3303   = 700.0000m    0:i3304   = 700.0000m    0:i331    =   0.     
 +   0:i3311   = 700.0000m    0:i3312   = 700.0000m    0:i3313   = 700.0000m
 +   0:i3314   =   0.         0:i332    = 700.0000m    0:i3321   =   0.     
 +   0:i3322   =   0.         0:i3323   =   0.         0:i3324   = 700.0000m
 +   0:i333    = 700.0000m    0:i334    =   0.         0:i341    =   0.     
 +   0:i342    =   0.         0:i343    = 700.0000m    0:i344    = 700.0000m
 +   0:i351    =   0.         0:i352    =   0.         0:i353    = 700.0000m
 +   0:i354    =   0.         0:i361    =   0.         0:i362    = 700.0000m
 +   0:i363    = 700.0000m    0:i364    =   0.         0:i371    = 700.0000m
 +   0:i372    = 700.0000m    0:i373    =   0.         0:i374    = 700.0000m
 +   0:i381    =   0.         0:i382    =   0.         0:i383    =   0.     
 +   0:i384    = 700.0000m    0:i391    = 700.0000m    0:i392    = 700.0000m
 +   0:i393    =   0.         0:i394    = 700.0000m    0:i4101   =   0.     
 +   0:i4102   = 700.0000m    0:i4103   =   0.         0:i4104   =   0.     
 +   0:i411    = 700.0000m    0:i4111   =   0.         0:i4112   =   0.     
 +   0:i4113   = 700.0000m    0:i4114   = 700.0000m    0:i412    = 700.0000m
 +   0:i4121   =   0.         0:i4122   = 700.0000m    0:i4123   =   0.     
 +   0:i4124   =   0.         0:i413    =   0.         0:i4131   =   0.     
 +   0:i4132   = 700.0000m    0:i4133   =   0.         0:i4134   =   0.     
 +   0:i414    =   0.         0:i4141   = 700.0000m    0:i4142   =   0.     
 +   0:i4143   = 700.0000m    0:i4144   = 700.0000m    0:i4151   = 700.0000m
 +   0:i4152   =   0.         0:i4153   =   0.         0:i4154   = 700.0000m
 +   0:i4161   =   0.         0:i4162   = 700.0000m    0:i4163   = 700.0000m
 +   0:i4164   = 700.0000m    0:i4171   =   0.         0:i4172   = 700.0000m
 +   0:i4173   =   0.         0:i4174   =   0.         0:i4181   =   0.     
 +   0:i4182   = 700.0000m    0:i4183   = 700.0000m    0:i4184   = 700.0000m
 +   0:i4191   =   0.         0:i4192   =   0.         0:i4193   = 700.0000m
 +   0:i4194   =   0.         0:i4201   = 700.0000m    0:i4202   = 700.0000m
 +   0:i4203   = 700.0000m    0:i4204   =   0.         0:i421    =   0.     
 +   0:i4211   =   0.         0:i4212   =   0.         0:i4213   =   0.     
 +   0:i4214   = 700.0000m    0:i422    = 700.0000m    0:i4221   =   0.     
 +   0:i4222   = 700.0000m    0:i4223   =   0.         0:i4224   =   0.     
 +   0:i423    = 700.0000m    0:i4231   =   0.         0:i4232   =   0.     
 +   0:i4233   =   0.         0:i4234   =   0.         0:i424    = 700.0000m
 +   0:i4241   = 700.0000m    0:i4242   = 700.0000m    0:i4243   =   0.     
 +   0:i4244   =   0.         0:i4251   =   0.         0:i4252   =   0.     
 +   0:i4253   =   0.         0:i4254   =   0.         0:i4261   =   0.     
 +   0:i4262   = 700.0000m    0:i4263   = 700.0000m    0:i4264   = 700.0000m
 +   0:i4271   = 700.0000m    0:i4272   =   0.         0:i4273   = 700.0000m
 +   0:i4274   = 700.0000m    0:i4281   =   0.         0:i4282   = 700.0000m
 +   0:i4283   =   0.         0:i4284   =   0.         0:i4291   = 700.0000m
 +   0:i4292   =   0.         0:i4293   =   0.         0:i4294   =   0.     
 +   0:i4301   =   0.         0:i4302   =   0.         0:i4303   =   0.     
 +   0:i4304   =   0.         0:i431    =   0.         0:i4311   = 700.0000m
 +   0:i4312   =   0.         0:i4313   = 700.0000m    0:i4314   = 700.0000m
 +   0:i432    =   0.         0:i4321   = 700.0000m    0:i4322   = 700.0000m
 +   0:i4323   = 700.0000m    0:i4324   =   0.         0:i433    = 700.0000m
 +   0:i434    = 700.0000m    0:i441    =   0.         0:i442    = 700.0000m
 +   0:i443    =   0.         0:i444    = 700.0000m    0:i451    =   0.     
 +   0:i452    = 700.0000m    0:i453    = 700.0000m    0:i454    =   0.     
 +   0:i461    = 700.0000m    0:i462    = 700.0000m    0:i463    = 700.0000m
 +   0:i464    =   0.         0:i471    = 700.0000m    0:i472    =   0.     
 +   0:i473    = 700.0000m    0:i474    = 700.0000m    0:i481    = 700.0000m
 +   0:i482    =   0.         0:i483    = 700.0000m    0:i484    = 700.0000m
 +   0:i491    = 700.0000m    0:i492    = 700.0000m    0:i493    = 700.0000m
 +   0:i494    =   0.         0:o_1_10_1= 165.7075n    0:o_1_10_2=   1.0710u
 +   0:o_1_10_3= 165.7075n    0:o_1_10_4=   1.0710u    0:o_1_11_1= 165.7075n
 +   0:o_1_11_2=   1.0710u    0:o_1_11_3=   1.0299u    0:o_1_11_4=   1.0710u
 +   0:o_1_12_1=   1.0299u    0:o_1_12_2= 699.9938m    0:o_1_12_3= 165.7075n
 +   0:o_1_12_4=   1.0710u    0:o_1_13_1= 165.7075n    0:o_1_13_2= 699.9938m
 +   0:o_1_13_3= 165.7075n    0:o_1_13_4=   1.0710u    0:o_1_14_1= 165.7075n
 +   0:o_1_14_2=   1.0710u    0:o_1_14_3=   1.0299u    0:o_1_14_4=   1.0710u
 +   0:o_1_15_1=   1.0299u    0:o_1_15_2=   1.0710u    0:o_1_15_3=   1.0299u
 +   0:o_1_15_4=   1.0710u    0:o_1_16_1=   1.0299u    0:o_1_16_2= 699.9938m
 +   0:o_1_16_3=   1.0299u    0:o_1_16_4= 699.9938m    0:o_1_17_1= 165.7075n
 +   0:o_1_17_2= 699.9938m    0:o_1_17_3= 165.7075n    0:o_1_17_4= 699.9938m
 +   0:o_1_18_1=   1.0299u    0:o_1_18_2=   1.0710u    0:o_1_18_3=   1.0299u
 +   0:o_1_18_4= 699.9938m    0:o_1_19_1= 165.7075n    0:o_1_19_2=   1.0710u
 +   0:o_1_19_3= 165.7075n    0:o_1_19_4= 699.9938m    0:o_1_1_1 =   1.0299u
 +   0:o_1_1_2 =   1.0710u    0:o_1_1_3 =   1.0299u    0:o_1_1_4 = 699.9938m
 +   0:o_1_20_1= 165.7075n    0:o_1_20_2=   1.0710u    0:o_1_20_3=   1.0299u
 +   0:o_1_20_4=   1.0710u    0:o_1_21_1= 165.7075n    0:o_1_21_2=   1.0710u
 +   0:o_1_21_3= 165.7075n    0:o_1_21_4=   1.0710u    0:o_1_22_1=   1.0299u
 +   0:o_1_22_2= 699.9938m    0:o_1_22_3=   1.0299u    0:o_1_22_4= 699.9938m
 +   0:o_1_23_1= 165.7075n    0:o_1_23_2=   1.0710u    0:o_1_23_3=   1.0299u
 +   0:o_1_23_4= 699.9938m    0:o_1_24_1= 165.7075n    0:o_1_24_2= 699.9938m
 +   0:o_1_24_3=   1.0299u    0:o_1_24_4=   1.0710u    0:o_1_25_1= 165.7075n
 +   0:o_1_25_2= 699.9938m    0:o_1_25_3= 165.7075n    0:o_1_25_4=   1.0710u
 +   0:o_1_26_1= 165.7075n    0:o_1_26_2=   1.0710u    0:o_1_26_3=   1.0299u
 +   0:o_1_26_4= 699.9938m    0:o_1_27_1= 165.7075n    0:o_1_27_2=   1.0710u
 +   0:o_1_27_3=   1.0299u    0:o_1_27_4=   1.0710u    0:o_1_28_1= 165.7075n
 +   0:o_1_28_2=   1.0710u    0:o_1_28_3= 165.7075n    0:o_1_28_4= 699.9938m
 +   0:o_1_29_1= 165.7075n    0:o_1_29_2=   1.0710u    0:o_1_29_3=   1.0299u
 +   0:o_1_29_4= 699.9938m    0:o_1_2_1 =   1.0299u    0:o_1_2_2 =   1.0710u
 +   0:o_1_2_3 =   1.0299u    0:o_1_2_4 =   1.0710u    0:o_1_30_1=   1.0299u
 +   0:o_1_30_2= 699.9938m    0:o_1_30_3= 165.7075n    0:o_1_30_4= 699.9938m
 +   0:o_1_31_1=   1.0299u    0:o_1_31_2=   1.0710u    0:o_1_31_3= 165.7075n
 +   0:o_1_31_4= 699.9938m    0:o_1_32_1= 165.7075n    0:o_1_32_2=   1.0710u
 +   0:o_1_32_3= 165.7075n    0:o_1_32_4=   1.0710u    0:o_1_3_1 = 165.7075n
 +   0:o_1_3_2 = 699.9938m    0:o_1_3_3 = 165.7075n    0:o_1_3_4 = 699.9938m
 +   0:o_1_4_1 = 165.7075n    0:o_1_4_2 = 699.9938m    0:o_1_4_3 = 165.7075n
 +   0:o_1_4_4 =   1.0710u    0:o_1_5_1 =   1.0299u    0:o_1_5_2 = 699.9938m
 +   0:o_1_5_3 = 165.7075n    0:o_1_5_4 = 699.9938m    0:o_1_6_1 = 165.7075n
 +   0:o_1_6_2 = 699.9938m    0:o_1_6_3 = 165.7075n    0:o_1_6_4 =   1.0710u
 +   0:o_1_7_1 = 165.7075n    0:o_1_7_2 =   1.0710u    0:o_1_7_3 =   1.0299u
 +   0:o_1_7_4 = 699.9938m    0:o_1_8_1 = 165.7075n    0:o_1_8_2 = 699.9938m
 +   0:o_1_8_3 =   1.0299u    0:o_1_8_4 =   1.0710u    0:o_1_9_1 =   1.0299u
 +   0:o_1_9_2 = 699.9938m    0:o_1_9_3 =   1.0299u    0:o_1_9_4 =   1.0710u
 +   0:o_2_10_1=   1.0299u    0:o_2_10_2= 699.9938m    0:o_2_10_3=   1.0299u
 +   0:o_2_10_4= 699.9938m    0:o_2_11_1=   1.0299u    0:o_2_11_2= 699.9938m
 +   0:o_2_11_3=   1.0299u    0:o_2_11_4=   1.0710u    0:o_2_12_1=   1.0299u
 +   0:o_2_12_2=   1.0710u    0:o_2_12_3= 165.7075n    0:o_2_12_4= 699.9938m
 +   0:o_2_13_1=   1.0299u    0:o_2_13_2= 699.9938m    0:o_2_13_3= 165.7075n
 +   0:o_2_13_4= 699.9938m    0:o_2_14_1=   1.0299u    0:o_2_14_2= 699.9938m
 +   0:o_2_14_3= 165.7075n    0:o_2_14_4=   1.0710u    0:o_2_15_1=   1.0299u
 +   0:o_2_15_2=   1.0710u    0:o_2_15_3= 165.7075n    0:o_2_15_4= 699.9938m
 +   0:o_2_16_1=   1.0299u    0:o_2_16_2=   1.0710u    0:o_2_16_3= 165.7075n
 +   0:o_2_16_4=   1.0710u    0:o_2_17_1=   1.0299u    0:o_2_17_2=   1.0710u
 +   0:o_2_17_3= 165.7075n    0:o_2_17_4=   1.0710u    0:o_2_18_1= 165.7075n
 +   0:o_2_18_2=   1.0710u    0:o_2_18_3=   1.0299u    0:o_2_18_4=   1.0710u
 +   0:o_2_19_1=   1.0299u    0:o_2_19_2=   1.0710u    0:o_2_19_3=   1.0299u
 +   0:o_2_19_4=   1.0710u    0:o_2_1_1 = 165.7075n    0:o_2_1_2 = 699.9938m
 +   0:o_2_1_3 =   1.0299u    0:o_2_1_4 =   1.0710u    0:o_2_20_1= 165.7075n
 +   0:o_2_20_2= 699.9938m    0:o_2_20_3= 165.7075n    0:o_2_20_4=   1.0710u
 +   0:o_2_21_1=   1.0299u    0:o_2_21_2=   1.0710u    0:o_2_21_3= 165.7075n
 +   0:o_2_21_4= 699.9938m    0:o_2_22_1= 165.7075n    0:o_2_22_2=   1.0710u
 +   0:o_2_22_3=   1.0299u    0:o_2_22_4= 699.9938m    0:o_2_23_1= 165.7075n
 +   0:o_2_23_2=   1.0710u    0:o_2_23_3= 165.7075n    0:o_2_23_4= 699.9938m
 +   0:o_2_24_1=   1.0299u    0:o_2_24_2= 699.9938m    0:o_2_24_3=   1.0299u
 +   0:o_2_24_4= 699.9938m    0:o_2_25_1=   1.0299u    0:o_2_25_2= 699.9938m
 +   0:o_2_25_3=   1.0299u    0:o_2_25_4= 699.9938m    0:o_2_26_1= 165.7075n
 +   0:o_2_26_2= 699.9938m    0:o_2_26_3=   1.0299u    0:o_2_26_4= 699.9938m
 +   0:o_2_27_1=   1.0299u    0:o_2_27_2= 699.9938m    0:o_2_27_3=   1.0299u
 +   0:o_2_27_4=   1.0710u    0:o_2_28_1= 165.7075n    0:o_2_28_2= 699.9938m
 +   0:o_2_28_3=   1.0299u    0:o_2_28_4= 699.9938m    0:o_2_29_1=   1.0299u
 +   0:o_2_29_2=   1.0710u    0:o_2_29_3=   1.0299u    0:o_2_29_4= 699.9938m
 +   0:o_2_2_1 = 165.7075n    0:o_2_2_2 = 699.9938m    0:o_2_2_3 = 165.7075n
 +   0:o_2_2_4 = 699.9938m    0:o_2_30_1= 165.7075n    0:o_2_30_2= 699.9938m
 +   0:o_2_30_3= 165.7075n    0:o_2_30_4= 699.9938m    0:o_2_31_1= 165.7075n
 +   0:o_2_31_2=   1.0710u    0:o_2_31_3= 165.7075n    0:o_2_31_4=   1.0710u
 +   0:o_2_32_1= 165.7075n    0:o_2_32_2= 699.9938m    0:o_2_32_3=   1.0299u
 +   0:o_2_32_4=   1.0710u    0:o_2_3_1 =   1.0299u    0:o_2_3_2 =   1.0710u
 +   0:o_2_3_3 =   1.0299u    0:o_2_3_4 =   1.0710u    0:o_2_4_1 =   1.0299u
 +   0:o_2_4_2 =   1.0710u    0:o_2_4_3 =   1.0299u    0:o_2_4_4 =   1.0710u
 +   0:o_2_5_1 =   1.0299u    0:o_2_5_2 =   1.0710u    0:o_2_5_3 =   1.0299u
 +   0:o_2_5_4 =   1.0710u    0:o_2_6_1 =   1.0299u    0:o_2_6_2 =   1.0710u
 +   0:o_2_6_3 = 165.7075n    0:o_2_6_4 =   1.0710u    0:o_2_7_1 = 165.7075n
 +   0:o_2_7_2 = 699.9938m    0:o_2_7_3 = 165.7075n    0:o_2_7_4 =   1.0710u
 +   0:o_2_8_1 = 165.7075n    0:o_2_8_2 = 699.9938m    0:o_2_8_3 =   1.0299u
 +   0:o_2_8_4 =   1.0710u    0:o_2_9_1 =   1.0299u    0:o_2_9_2 = 699.9938m
 +   0:o_2_9_3 =   1.0299u    0:o_2_9_4 = 699.9938m    0:o_3_10_1=   1.0299u
 +   0:o_3_10_2=   1.0710u    0:o_3_10_3= 165.7075n    0:o_3_10_4=   1.0710u
 +   0:o_3_11_1=   1.0299u    0:o_3_11_2=   1.0710u    0:o_3_11_3= 165.7075n
 +   0:o_3_11_4= 699.9938m    0:o_3_12_1=   1.0299u    0:o_3_12_2= 699.9938m
 +   0:o_3_12_3= 165.7075n    0:o_3_12_4=   1.0710u    0:o_3_13_1=   1.0299u
 +   0:o_3_13_2= 699.9938m    0:o_3_13_3= 165.7075n    0:o_3_13_4= 699.9938m
 +   0:o_3_14_1=   1.0299u    0:o_3_14_2= 699.9938m    0:o_3_14_3= 165.7075n
 +   0:o_3_14_4=   1.0710u    0:o_3_15_1= 165.7075n    0:o_3_15_2=   1.0710u
 +   0:o_3_15_3=   1.0299u    0:o_3_15_4= 699.9938m    0:o_3_16_1= 165.7075n
 +   0:o_3_16_2=   1.0710u    0:o_3_16_3=   1.0299u    0:o_3_16_4=   1.0710u
 +   0:o_3_17_1= 165.7075n    0:o_3_17_2= 699.9938m    0:o_3_17_3= 165.7075n
 +   0:o_3_17_4= 699.9938m    0:o_3_18_1= 165.7075n    0:o_3_18_2=   1.0710u
 +   0:o_3_18_3= 165.7075n    0:o_3_18_4=   1.0710u    0:o_3_19_1=   1.0299u
 +   0:o_3_19_2= 699.9938m    0:o_3_19_3= 165.7075n    0:o_3_19_4=   1.0710u
 +   0:o_3_1_1 =   1.0299u    0:o_3_1_2 = 699.9938m    0:o_3_1_3 =   1.0299u
 +   0:o_3_1_4 =   1.0710u    0:o_3_20_1=   1.0299u    0:o_3_20_2=   1.0710u
 +   0:o_3_20_3=   1.0299u    0:o_3_20_4= 699.9938m    0:o_3_21_1=   1.0299u
 +   0:o_3_21_2=   1.0710u    0:o_3_21_3= 165.7075n    0:o_3_21_4=   1.0710u
 +   0:o_3_22_1=   1.0299u    0:o_3_22_2=   1.0710u    0:o_3_22_3= 165.7075n
 +   0:o_3_22_4=   1.0710u    0:o_3_23_1= 165.7075n    0:o_3_23_2= 699.9938m
 +   0:o_3_23_3=   1.0299u    0:o_3_23_4=   1.0710u    0:o_3_24_1= 165.7075n
 +   0:o_3_24_2=   1.0710u    0:o_3_24_3= 165.7075n    0:o_3_24_4=   1.0710u
 +   0:o_3_25_1=   1.0299u    0:o_3_25_2=   1.0710u    0:o_3_25_3=   1.0299u
 +   0:o_3_25_4=   1.0710u    0:o_3_26_1= 165.7075n    0:o_3_26_2= 699.9938m
 +   0:o_3_26_3=   1.0299u    0:o_3_26_4=   1.0710u    0:o_3_27_1=   1.0299u
 +   0:o_3_27_2=   1.0710u    0:o_3_27_3=   1.0299u    0:o_3_27_4=   1.0710u
 +   0:o_3_28_1=   1.0299u    0:o_3_28_2= 699.9938m    0:o_3_28_3=   1.0299u
 +   0:o_3_28_4= 699.9938m    0:o_3_29_1= 165.7075n    0:o_3_29_2= 699.9938m
 +   0:o_3_29_3= 165.7075n    0:o_3_29_4= 699.9938m    0:o_3_2_1 = 165.7075n
 +   0:o_3_2_2 =   1.0710u    0:o_3_2_3 = 165.7075n    0:o_3_2_4 = 699.9938m
 +   0:o_3_30_1=   1.0299u    0:o_3_30_2= 699.9938m    0:o_3_30_3=   1.0299u
 +   0:o_3_30_4= 699.9938m    0:o_3_31_1=   1.0299u    0:o_3_31_2= 699.9938m
 +   0:o_3_31_3=   1.0299u    0:o_3_31_4=   1.0710u    0:o_3_32_1= 165.7075n
 +   0:o_3_32_2=   1.0710u    0:o_3_32_3= 165.7075n    0:o_3_32_4= 699.9938m
 +   0:o_3_3_1 = 165.7075n    0:o_3_3_2 = 699.9938m    0:o_3_3_3 =   1.0299u
 +   0:o_3_3_4 =   1.0710u    0:o_3_4_1 = 165.7075n    0:o_3_4_2 =   1.0710u
 +   0:o_3_4_3 =   1.0299u    0:o_3_4_4 = 699.9938m    0:o_3_5_1 = 165.7075n
 +   0:o_3_5_2 =   1.0710u    0:o_3_5_3 =   1.0299u    0:o_3_5_4 =   1.0710u
 +   0:o_3_6_1 = 165.7075n    0:o_3_6_2 = 699.9938m    0:o_3_6_3 =   1.0299u
 +   0:o_3_6_4 =   1.0710u    0:o_3_7_1 =   1.0299u    0:o_3_7_2 = 699.9938m
 +   0:o_3_7_3 = 165.7075n    0:o_3_7_4 = 699.9938m    0:o_3_8_1 = 165.7075n
 +   0:o_3_8_2 =   1.0710u    0:o_3_8_3 = 165.7075n    0:o_3_8_4 = 699.9938m
 +   0:o_3_9_1 =   1.0299u    0:o_3_9_2 = 699.9938m    0:o_3_9_3 = 165.7075n
 +   0:o_3_9_4 = 699.9938m    0:o_4_10_1= 165.7075n    0:o_4_10_2= 699.9938m
 +   0:o_4_10_3= 165.7075n    0:o_4_10_4=   1.0710u    0:o_4_11_1= 165.7075n
 +   0:o_4_11_2=   1.0710u    0:o_4_11_3=   1.0299u    0:o_4_11_4= 699.9938m
 +   0:o_4_12_1= 165.7075n    0:o_4_12_2= 699.9938m    0:o_4_12_3= 165.7075n
 +   0:o_4_12_4=   1.0710u    0:o_4_13_1= 165.7075n    0:o_4_13_2= 699.9938m
 +   0:o_4_13_3= 165.7075n    0:o_4_13_4=   1.0710u    0:o_4_14_1=   1.0299u
 +   0:o_4_14_2=   1.0710u    0:o_4_14_3=   1.0299u    0:o_4_14_4= 699.9938m
 +   0:o_4_15_1=   1.0299u    0:o_4_15_2=   1.0710u    0:o_4_15_3= 165.7075n
 +   0:o_4_15_4= 699.9938m    0:o_4_16_1= 165.7075n    0:o_4_16_2= 699.9938m
 +   0:o_4_16_3=   1.0299u    0:o_4_16_4= 699.9938m    0:o_4_17_1= 165.7075n
 +   0:o_4_17_2= 699.9938m    0:o_4_17_3= 165.7075n    0:o_4_17_4=   1.0710u
 +   0:o_4_18_1= 165.7075n    0:o_4_18_2= 699.9938m    0:o_4_18_3=   1.0299u
 +   0:o_4_18_4= 699.9938m    0:o_4_19_1= 165.7075n    0:o_4_19_2=   1.0710u
 +   0:o_4_19_3=   1.0299u    0:o_4_19_4=   1.0710u    0:o_4_1_1 =   1.0299u
 +   0:o_4_1_2 = 699.9938m    0:o_4_1_3 = 165.7075n    0:o_4_1_4 =   1.0710u
 +   0:o_4_20_1=   1.0299u    0:o_4_20_2= 699.9938m    0:o_4_20_3=   1.0299u
 +   0:o_4_20_4=   1.0710u    0:o_4_21_1= 165.7075n    0:o_4_21_2=   1.0710u
 +   0:o_4_21_3= 165.7075n    0:o_4_21_4= 699.9938m    0:o_4_22_1= 165.7075n
 +   0:o_4_22_2= 699.9938m    0:o_4_22_3= 165.7075n    0:o_4_22_4=   1.0710u
 +   0:o_4_23_1= 165.7075n    0:o_4_23_2=   1.0710u    0:o_4_23_3= 165.7075n
 +   0:o_4_23_4=   1.0710u    0:o_4_24_1=   1.0299u    0:o_4_24_2= 699.9938m
 +   0:o_4_24_3= 165.7075n    0:o_4_24_4=   1.0710u    0:o_4_25_1= 165.7075n
 +   0:o_4_25_2=   1.0710u    0:o_4_25_3= 165.7075n    0:o_4_25_4=   1.0710u
 +   0:o_4_26_1= 165.7075n    0:o_4_26_2= 699.9938m    0:o_4_26_3=   1.0299u
 +   0:o_4_26_4= 699.9938m    0:o_4_27_1=   1.0299u    0:o_4_27_2=   1.0710u
 +   0:o_4_27_3=   1.0299u    0:o_4_27_4= 699.9938m    0:o_4_28_1= 165.7075n
 +   0:o_4_28_2= 699.9938m    0:o_4_28_3= 165.7075n    0:o_4_28_4=   1.0710u
 +   0:o_4_29_1=   1.0299u    0:o_4_29_2=   1.0710u    0:o_4_29_3= 165.7075n
 +   0:o_4_29_4=   1.0710u    0:o_4_2_1 = 165.7075n    0:o_4_2_2 = 699.9938m
 +   0:o_4_2_3 =   1.0299u    0:o_4_2_4 = 699.9938m    0:o_4_30_1= 165.7075n
 +   0:o_4_30_2=   1.0710u    0:o_4_30_3= 165.7075n    0:o_4_30_4=   1.0710u
 +   0:o_4_31_1=   1.0299u    0:o_4_31_2=   1.0710u    0:o_4_31_3=   1.0299u
 +   0:o_4_31_4= 699.9938m    0:o_4_32_1=   1.0299u    0:o_4_32_2= 699.9938m
 +   0:o_4_32_3=   1.0299u    0:o_4_32_4=   1.0710u    0:o_4_3_1 = 165.7075n
 +   0:o_4_3_2 =   1.0710u    0:o_4_3_3 =   1.0299u    0:o_4_3_4 = 699.9938m
 +   0:o_4_4_1 = 165.7075n    0:o_4_4_2 = 699.9938m    0:o_4_4_3 = 165.7075n
 +   0:o_4_4_4 = 699.9938m    0:o_4_5_1 = 165.7075n    0:o_4_5_2 = 699.9938m
 +   0:o_4_5_3 =   1.0299u    0:o_4_5_4 =   1.0710u    0:o_4_6_1 =   1.0299u
 +   0:o_4_6_2 = 699.9938m    0:o_4_6_3 =   1.0299u    0:o_4_6_4 =   1.0710u
 +   0:o_4_7_1 =   1.0299u    0:o_4_7_2 =   1.0710u    0:o_4_7_3 =   1.0299u
 +   0:o_4_7_4 = 699.9938m    0:o_4_8_1 =   1.0299u    0:o_4_8_2 =   1.0710u
 +   0:o_4_8_3 =   1.0299u    0:o_4_8_4 = 699.9938m    0:o_4_9_1 =   1.0299u
 +   0:o_4_9_2 = 699.9938m    0:o_4_9_3 =   1.0299u    0:o_4_9_4 =   1.0710u
 +   0:vdd     = 700.0000m    0:vss     =   0.         0:w_1_10_1= 254.5270n
 +   0:w_1_10_1= 999.9997m    0:w_1_10_2= 999.9997m    0:w_1_10_2=  83.9758f
 +   0:w_1_10_3=  91.3588f    0:w_1_10_3= 999.9997m    0:w_1_10_4= 999.9997m
 +   0:w_1_10_4=  83.9758f    0:w_1_11_1= 254.5270n    0:w_1_11_1= 999.9997m
 +   0:w_1_11_2= 999.9997m    0:w_1_11_2=  83.9758f    0:w_1_11_3=  91.3588f
 +   0:w_1_11_3= 999.9997m    0:w_1_11_4= 999.9997m    0:w_1_11_4=  83.9758f
 +   0:w_1_12_1= 254.5270n    0:w_1_12_1= 999.9997m    0:w_1_12_2= 999.9997m
 +   0:w_1_12_2=  83.9758f    0:w_1_12_3=  91.3588f    0:w_1_12_3= 999.9997m
 +   0:w_1_12_4= 999.9997m    0:w_1_12_4=  83.9758f    0:w_1_13_1= 254.5270n
 +   0:w_1_13_1= 999.9997m    0:w_1_13_2= 999.9997m    0:w_1_13_2=  83.9758f
 +   0:w_1_13_3=  91.3588f    0:w_1_13_3= 999.9997m    0:w_1_13_4= 999.9997m
 +   0:w_1_13_4=  83.9758f    0:w_1_14_1= 254.5270n    0:w_1_14_1= 999.9997m
 +   0:w_1_14_2= 999.9997m    0:w_1_14_2=  83.9758f    0:w_1_14_3=  91.3588f
 +   0:w_1_14_3= 999.9997m    0:w_1_14_4= 999.9997m    0:w_1_14_4=  83.9758f
 +   0:w_1_15_1= 254.5270n    0:w_1_15_1= 999.9997m    0:w_1_15_2= 999.9997m
 +   0:w_1_15_2=  83.9758f    0:w_1_15_3=  91.3588f    0:w_1_15_3= 999.9997m
 +   0:w_1_15_4= 999.9997m    0:w_1_15_4=  83.9758f    0:w_1_16_1= 254.5270n
 +   0:w_1_16_1= 999.9997m    0:w_1_16_2= 999.9997m    0:w_1_16_2=  83.9758f
 +   0:w_1_16_3=  91.3588f    0:w_1_16_3= 999.9997m    0:w_1_16_4= 999.9997m
 +   0:w_1_16_4=  83.9758f    0:w_1_17_1= 254.5270n    0:w_1_17_1= 999.9997m
 +   0:w_1_17_2= 999.9997m    0:w_1_17_2=  83.9758f    0:w_1_17_3=  91.3588f
 +   0:w_1_17_3= 999.9997m    0:w_1_17_4= 999.9997m    0:w_1_17_4=  83.9758f
 +   0:w_1_18_1= 254.5270n    0:w_1_18_1= 999.9997m    0:w_1_18_2= 999.9997m
 +   0:w_1_18_2=  83.9758f    0:w_1_18_3=  91.3588f    0:w_1_18_3= 999.9997m
 +   0:w_1_18_4= 999.9997m    0:w_1_18_4=  83.9758f    0:w_1_19_1= 254.5270n
 +   0:w_1_19_1= 999.9997m    0:w_1_19_2= 999.9997m    0:w_1_19_2=  83.9758f
 +   0:w_1_19_3=  91.3588f    0:w_1_19_3= 999.9997m    0:w_1_19_4= 999.9997m
 +   0:w_1_19_4=  83.9758f    0:w_1_1_1 = 254.5270n    0:w_1_1_1_= 999.9997m
 +   0:w_1_1_2 = 999.9997m    0:w_1_1_2_=  83.9758f    0:w_1_1_3 =  91.3588f
 +   0:w_1_1_3_= 999.9997m    0:w_1_1_4 = 999.9997m    0:w_1_1_4_=  83.9758f
 +   0:w_1_20_1= 254.5270n    0:w_1_20_1= 999.9997m    0:w_1_20_2= 999.9997m
 +   0:w_1_20_2=  83.9758f    0:w_1_20_3=  91.3588f    0:w_1_20_3= 999.9997m
 +   0:w_1_20_4= 999.9997m    0:w_1_20_4=  83.9758f    0:w_1_21_1= 254.5270n
 +   0:w_1_21_1= 999.9997m    0:w_1_21_2= 999.9997m    0:w_1_21_2=  83.9758f
 +   0:w_1_21_3=  91.3588f    0:w_1_21_3= 999.9997m    0:w_1_21_4= 999.9997m
 +   0:w_1_21_4=  83.9758f    0:w_1_22_1= 254.5270n    0:w_1_22_1= 999.9997m
 +   0:w_1_22_2= 999.9997m    0:w_1_22_2=  83.9758f    0:w_1_22_3=  91.3588f
 +   0:w_1_22_3= 999.9997m    0:w_1_22_4= 999.9997m    0:w_1_22_4=  83.9758f
 +   0:w_1_23_1= 254.5270n    0:w_1_23_1= 999.9997m    0:w_1_23_2= 999.9997m
 +   0:w_1_23_2=  83.9758f    0:w_1_23_3=  91.3588f    0:w_1_23_3= 999.9997m
 +   0:w_1_23_4= 999.9997m    0:w_1_23_4=  83.9758f    0:w_1_24_1= 254.5270n
 +   0:w_1_24_1= 999.9997m    0:w_1_24_2= 999.9997m    0:w_1_24_2=  83.9758f
 +   0:w_1_24_3=  91.3588f    0:w_1_24_3= 999.9997m    0:w_1_24_4= 999.9997m
 +   0:w_1_24_4=  83.9758f    0:w_1_25_1= 254.5270n    0:w_1_25_1= 999.9997m
 +   0:w_1_25_2= 999.9997m    0:w_1_25_2=  83.9758f    0:w_1_25_3=  91.3588f
 +   0:w_1_25_3= 999.9997m    0:w_1_25_4= 999.9997m    0:w_1_25_4=  83.9758f
 +   0:w_1_26_1= 254.5270n    0:w_1_26_1= 999.9997m    0:w_1_26_2= 999.9997m
 +   0:w_1_26_2=  83.9758f    0:w_1_26_3=  91.3588f    0:w_1_26_3= 999.9997m
 +   0:w_1_26_4= 999.9997m    0:w_1_26_4=  83.9758f    0:w_1_27_1= 254.5270n
 +   0:w_1_27_1= 999.9997m    0:w_1_27_2= 999.9997m    0:w_1_27_2=  83.9758f
 +   0:w_1_27_3=  91.3588f    0:w_1_27_3= 999.9997m    0:w_1_27_4= 999.9997m
 +   0:w_1_27_4=  83.9758f    0:w_1_28_1= 254.5270n    0:w_1_28_1= 999.9997m
 +   0:w_1_28_2= 999.9997m    0:w_1_28_2=  83.9758f    0:w_1_28_3=  91.3588f
 +   0:w_1_28_3= 999.9997m    0:w_1_28_4= 999.9997m    0:w_1_28_4=  83.9758f
 +   0:w_1_29_1= 254.5270n    0:w_1_29_1= 999.9997m    0:w_1_29_2= 999.9997m
 +   0:w_1_29_2=  83.9758f    0:w_1_29_3=  91.3588f    0:w_1_29_3= 999.9997m
 +   0:w_1_29_4= 999.9997m    0:w_1_29_4=  83.9758f    0:w_1_2_1 = 254.5270n
 +   0:w_1_2_1_= 999.9997m    0:w_1_2_2 = 999.9997m    0:w_1_2_2_=  83.9758f
 +   0:w_1_2_3 =  91.3588f    0:w_1_2_3_= 999.9997m    0:w_1_2_4 = 999.9997m
 +   0:w_1_2_4_=  83.9758f    0:w_1_30_1= 254.5270n    0:w_1_30_1= 999.9997m
 +   0:w_1_30_2= 999.9997m    0:w_1_30_2=  83.9758f    0:w_1_30_3=  91.3588f
 +   0:w_1_30_3= 999.9997m    0:w_1_30_4= 999.9997m    0:w_1_30_4=  83.9758f
 +   0:w_1_31_1= 254.5270n    0:w_1_31_1= 999.9997m    0:w_1_31_2= 999.9997m
 +   0:w_1_31_2=  83.9758f    0:w_1_31_3=  91.3588f    0:w_1_31_3= 999.9997m
 +   0:w_1_31_4= 999.9997m    0:w_1_31_4=  83.9758f    0:w_1_32_1= 254.5270n
 +   0:w_1_32_1= 999.9997m    0:w_1_32_2= 999.9997m    0:w_1_32_2=  83.9758f
 +   0:w_1_32_3=  91.3588f    0:w_1_32_3= 999.9997m    0:w_1_32_4= 999.9997m
 +   0:w_1_32_4=  83.9758f    0:w_1_3_1 = 254.5270n    0:w_1_3_1_= 999.9997m
 +   0:w_1_3_2 = 999.9997m    0:w_1_3_2_=  83.9758f    0:w_1_3_3 =  91.3588f
 +   0:w_1_3_3_= 999.9997m    0:w_1_3_4 = 999.9997m    0:w_1_3_4_=  83.9758f
 +   0:w_1_4_1 = 254.5270n    0:w_1_4_1_= 999.9997m    0:w_1_4_2 = 999.9997m
 +   0:w_1_4_2_=  83.9758f    0:w_1_4_3 =  91.3588f    0:w_1_4_3_= 999.9997m
 +   0:w_1_4_4 = 999.9997m    0:w_1_4_4_=  83.9758f    0:w_1_5_1 = 254.5270n
 +   0:w_1_5_1_= 999.9997m    0:w_1_5_2 = 999.9997m    0:w_1_5_2_=  83.9758f
 +   0:w_1_5_3 =  91.3588f    0:w_1_5_3_= 999.9997m    0:w_1_5_4 = 999.9997m
 +   0:w_1_5_4_=  83.9758f    0:w_1_6_1 = 254.5270n    0:w_1_6_1_= 999.9997m
 +   0:w_1_6_2 = 999.9997m    0:w_1_6_2_=  83.9758f    0:w_1_6_3 =  91.3588f
 +   0:w_1_6_3_= 999.9997m    0:w_1_6_4 = 999.9997m    0:w_1_6_4_=  83.9758f
 +   0:w_1_7_1 = 254.5270n    0:w_1_7_1_= 999.9997m    0:w_1_7_2 = 999.9997m
 +   0:w_1_7_2_=  83.9758f    0:w_1_7_3 =  91.3588f    0:w_1_7_3_= 999.9997m
 +   0:w_1_7_4 = 999.9997m    0:w_1_7_4_=  83.9758f    0:w_1_8_1 = 254.5270n
 +   0:w_1_8_1_= 999.9997m    0:w_1_8_2 = 999.9997m    0:w_1_8_2_=  83.9758f
 +   0:w_1_8_3 =  91.3588f    0:w_1_8_3_= 999.9997m    0:w_1_8_4 = 999.9997m
 +   0:w_1_8_4_=  83.9758f    0:w_1_9_1 = 254.5270n    0:w_1_9_1_= 999.9997m
 +   0:w_1_9_2 = 999.9997m    0:w_1_9_2_=  83.9758f    0:w_1_9_3 =  91.3588f
 +   0:w_1_9_3_= 999.9997m    0:w_1_9_4 = 999.9997m    0:w_1_9_4_=  83.9758f
 +   0:w_2_10_1= 254.5270n    0:w_2_10_1= 999.9997m    0:w_2_10_2= 999.9997m
 +   0:w_2_10_2=  83.9758f    0:w_2_10_3=  91.3588f    0:w_2_10_3= 999.9997m
 +   0:w_2_10_4= 999.9997m    0:w_2_10_4=  83.9758f    0:w_2_11_1= 254.5270n
 +   0:w_2_11_1= 999.9997m    0:w_2_11_2= 999.9997m    0:w_2_11_2=  83.9758f
 +   0:w_2_11_3=  91.3588f    0:w_2_11_3= 999.9997m    0:w_2_11_4= 999.9997m
 +   0:w_2_11_4=  83.9758f    0:w_2_12_1= 254.5270n    0:w_2_12_1= 999.9997m
 +   0:w_2_12_2= 999.9997m    0:w_2_12_2=  83.9758f    0:w_2_12_3=  91.3588f
 +   0:w_2_12_3= 999.9997m    0:w_2_12_4= 999.9997m    0:w_2_12_4=  83.9758f
 +   0:w_2_13_1= 254.5270n    0:w_2_13_1= 999.9997m    0:w_2_13_2= 999.9997m
 +   0:w_2_13_2=  83.9758f    0:w_2_13_3=  91.3588f    0:w_2_13_3= 999.9997m
 +   0:w_2_13_4= 999.9997m    0:w_2_13_4=  83.9758f    0:w_2_14_1= 254.5270n
 +   0:w_2_14_1= 999.9997m    0:w_2_14_2= 999.9997m    0:w_2_14_2=  83.9758f
 +   0:w_2_14_3=  91.3588f    0:w_2_14_3= 999.9997m    0:w_2_14_4= 999.9997m
 +   0:w_2_14_4=  83.9758f    0:w_2_15_1= 254.5270n    0:w_2_15_1= 999.9997m
 +   0:w_2_15_2= 999.9997m    0:w_2_15_2=  83.9758f    0:w_2_15_3=  91.3588f
 +   0:w_2_15_3= 999.9997m    0:w_2_15_4= 999.9997m    0:w_2_15_4=  83.9758f
 +   0:w_2_16_1= 254.5270n    0:w_2_16_1= 999.9997m    0:w_2_16_2= 999.9997m
 +   0:w_2_16_2=  83.9758f    0:w_2_16_3=  91.3588f    0:w_2_16_3= 999.9997m
 +   0:w_2_16_4= 999.9997m    0:w_2_16_4=  83.9758f    0:w_2_17_1= 254.5270n
 +   0:w_2_17_1= 999.9997m    0:w_2_17_2= 999.9997m    0:w_2_17_2=  83.9758f
 +   0:w_2_17_3=  91.3588f    0:w_2_17_3= 999.9997m    0:w_2_17_4= 999.9997m
 +   0:w_2_17_4=  83.9758f    0:w_2_18_1= 254.5270n    0:w_2_18_1= 999.9997m
 +   0:w_2_18_2= 999.9997m    0:w_2_18_2=  83.9758f    0:w_2_18_3=  91.3588f
 +   0:w_2_18_3= 999.9997m    0:w_2_18_4= 999.9997m    0:w_2_18_4=  83.9758f
 +   0:w_2_19_1= 254.5270n    0:w_2_19_1= 999.9997m    0:w_2_19_2= 999.9997m
 +   0:w_2_19_2=  83.9758f    0:w_2_19_3=  91.3588f    0:w_2_19_3= 999.9997m
 +   0:w_2_19_4= 999.9997m    0:w_2_19_4=  83.9758f    0:w_2_1_1 = 254.5270n
 +   0:w_2_1_1_= 999.9997m    0:w_2_1_2 = 999.9997m    0:w_2_1_2_=  83.9758f
 +   0:w_2_1_3 =  91.3588f    0:w_2_1_3_= 999.9997m    0:w_2_1_4 = 999.9997m
 +   0:w_2_1_4_=  83.9758f    0:w_2_20_1= 254.5270n    0:w_2_20_1= 999.9997m
 +   0:w_2_20_2= 999.9997m    0:w_2_20_2=  83.9758f    0:w_2_20_3=  91.3588f
 +   0:w_2_20_3= 999.9997m    0:w_2_20_4= 999.9997m    0:w_2_20_4=  83.9758f
 +   0:w_2_21_1= 254.5270n    0:w_2_21_1= 999.9997m    0:w_2_21_2= 999.9997m
 +   0:w_2_21_2=  83.9758f    0:w_2_21_3=  91.3588f    0:w_2_21_3= 999.9997m
 +   0:w_2_21_4= 999.9997m    0:w_2_21_4=  83.9758f    0:w_2_22_1= 254.5270n
 +   0:w_2_22_1= 999.9997m    0:w_2_22_2= 999.9997m    0:w_2_22_2=  83.9758f
 +   0:w_2_22_3=  91.3588f    0:w_2_22_3= 999.9997m    0:w_2_22_4= 999.9997m
 +   0:w_2_22_4=  83.9758f    0:w_2_23_1= 254.5270n    0:w_2_23_1= 999.9997m
 +   0:w_2_23_2= 999.9997m    0:w_2_23_2=  83.9758f    0:w_2_23_3=  91.3588f
 +   0:w_2_23_3= 999.9997m    0:w_2_23_4= 999.9997m    0:w_2_23_4=  83.9758f
 +   0:w_2_24_1= 254.5270n    0:w_2_24_1= 999.9997m    0:w_2_24_2= 999.9997m
 +   0:w_2_24_2=  83.9758f    0:w_2_24_3=  91.3588f    0:w_2_24_3= 999.9997m
 +   0:w_2_24_4= 999.9997m    0:w_2_24_4=  83.9758f    0:w_2_25_1= 254.5270n
 +   0:w_2_25_1= 999.9997m    0:w_2_25_2= 999.9997m    0:w_2_25_2=  83.9758f
 +   0:w_2_25_3=  91.3588f    0:w_2_25_3= 999.9997m    0:w_2_25_4= 999.9997m
 +   0:w_2_25_4=  83.9758f    0:w_2_26_1= 254.5270n    0:w_2_26_1= 999.9997m
 +   0:w_2_26_2= 999.9997m    0:w_2_26_2=  83.9758f    0:w_2_26_3=  91.3588f
 +   0:w_2_26_3= 999.9997m    0:w_2_26_4= 999.9997m    0:w_2_26_4=  83.9758f
 +   0:w_2_27_1= 254.5270n    0:w_2_27_1= 999.9997m    0:w_2_27_2= 999.9997m
 +   0:w_2_27_2=  83.9758f    0:w_2_27_3=  91.3588f    0:w_2_27_3= 999.9997m
 +   0:w_2_27_4= 999.9997m    0:w_2_27_4=  83.9758f    0:w_2_28_1= 254.5270n
 +   0:w_2_28_1= 999.9997m    0:w_2_28_2= 999.9997m    0:w_2_28_2=  83.9758f
 +   0:w_2_28_3=  91.3588f    0:w_2_28_3= 999.9997m    0:w_2_28_4= 999.9997m
 +   0:w_2_28_4=  83.9758f    0:w_2_29_1= 254.5270n    0:w_2_29_1= 999.9997m
 +   0:w_2_29_2= 999.9997m    0:w_2_29_2=  83.9758f    0:w_2_29_3=  91.3588f
 +   0:w_2_29_3= 999.9997m    0:w_2_29_4= 999.9997m    0:w_2_29_4=  83.9758f
 +   0:w_2_2_1 = 254.5270n    0:w_2_2_1_= 999.9997m    0:w_2_2_2 = 999.9997m
 +   0:w_2_2_2_=  83.9758f    0:w_2_2_3 =  91.3588f    0:w_2_2_3_= 999.9997m
 +   0:w_2_2_4 = 999.9997m    0:w_2_2_4_=  83.9758f    0:w_2_30_1= 254.5270n
 +   0:w_2_30_1= 999.9997m    0:w_2_30_2= 999.9997m    0:w_2_30_2=  83.9758f
 +   0:w_2_30_3=  91.3588f    0:w_2_30_3= 999.9997m    0:w_2_30_4= 999.9997m
 +   0:w_2_30_4=  83.9758f    0:w_2_31_1= 254.5270n    0:w_2_31_1= 999.9997m
 +   0:w_2_31_2= 999.9997m    0:w_2_31_2=  83.9758f    0:w_2_31_3=  91.3588f
 +   0:w_2_31_3= 999.9997m    0:w_2_31_4= 999.9997m    0:w_2_31_4=  83.9758f
 +   0:w_2_32_1= 254.5270n    0:w_2_32_1= 999.9997m    0:w_2_32_2= 999.9997m
 +   0:w_2_32_2=  83.9758f    0:w_2_32_3=  91.3588f    0:w_2_32_3= 999.9997m
 +   0:w_2_32_4= 999.9997m    0:w_2_32_4=  83.9758f    0:w_2_3_1 = 254.5270n
 +   0:w_2_3_1_= 999.9997m    0:w_2_3_2 = 999.9997m    0:w_2_3_2_=  83.9758f
 +   0:w_2_3_3 =  91.3588f    0:w_2_3_3_= 999.9997m    0:w_2_3_4 = 999.9997m
 +   0:w_2_3_4_=  83.9758f    0:w_2_4_1 = 254.5270n    0:w_2_4_1_= 999.9997m
 +   0:w_2_4_2 = 999.9997m    0:w_2_4_2_=  83.9758f    0:w_2_4_3 =  91.3588f
 +   0:w_2_4_3_= 999.9997m    0:w_2_4_4 = 999.9997m    0:w_2_4_4_=  83.9758f
 +   0:w_2_5_1 = 254.5270n    0:w_2_5_1_= 999.9997m    0:w_2_5_2 = 999.9997m
 +   0:w_2_5_2_=  83.9758f    0:w_2_5_3 =  91.3588f    0:w_2_5_3_= 999.9997m
 +   0:w_2_5_4 = 999.9997m    0:w_2_5_4_=  83.9758f    0:w_2_6_1 = 254.5270n
 +   0:w_2_6_1_= 999.9997m    0:w_2_6_2 = 999.9997m    0:w_2_6_2_=  83.9758f
 +   0:w_2_6_3 =  91.3588f    0:w_2_6_3_= 999.9997m    0:w_2_6_4 = 999.9997m
 +   0:w_2_6_4_=  83.9758f    0:w_2_7_1 = 254.5270n    0:w_2_7_1_= 999.9997m
 +   0:w_2_7_2 = 999.9997m    0:w_2_7_2_=  83.9758f    0:w_2_7_3 =  91.3588f
 +   0:w_2_7_3_= 999.9997m    0:w_2_7_4 = 999.9997m    0:w_2_7_4_=  83.9758f
 +   0:w_2_8_1 = 254.5270n    0:w_2_8_1_= 999.9997m    0:w_2_8_2 = 999.9997m
 +   0:w_2_8_2_=  83.9758f    0:w_2_8_3 =  91.3588f    0:w_2_8_3_= 999.9997m
 +   0:w_2_8_4 = 999.9997m    0:w_2_8_4_=  83.9758f    0:w_2_9_1 = 254.5270n
 +   0:w_2_9_1_= 999.9997m    0:w_2_9_2 = 999.9997m    0:w_2_9_2_=  83.9758f
 +   0:w_2_9_3 =  91.3588f    0:w_2_9_3_= 999.9997m    0:w_2_9_4 = 999.9997m
 +   0:w_2_9_4_=  83.9758f    0:w_3_10_1= 254.5270n    0:w_3_10_1= 999.9997m
 +   0:w_3_10_2= 999.9997m    0:w_3_10_2=  83.9758f    0:w_3_10_3=  91.3588f
 +   0:w_3_10_3= 999.9997m    0:w_3_10_4= 999.9997m    0:w_3_10_4=  83.9758f
 +   0:w_3_11_1= 254.5270n    0:w_3_11_1= 999.9997m    0:w_3_11_2= 999.9997m
 +   0:w_3_11_2=  83.9758f    0:w_3_11_3=  91.3588f    0:w_3_11_3= 999.9997m
 +   0:w_3_11_4= 999.9997m    0:w_3_11_4=  83.9758f    0:w_3_12_1= 254.5270n
 +   0:w_3_12_1= 999.9997m    0:w_3_12_2= 999.9997m    0:w_3_12_2=  83.9758f
 +   0:w_3_12_3=  91.3588f    0:w_3_12_3= 999.9997m    0:w_3_12_4= 999.9997m
 +   0:w_3_12_4=  83.9758f    0:w_3_13_1= 254.5270n    0:w_3_13_1= 999.9997m
 +   0:w_3_13_2= 999.9997m    0:w_3_13_2=  83.9758f    0:w_3_13_3=  91.3588f
 +   0:w_3_13_3= 999.9997m    0:w_3_13_4= 999.9997m    0:w_3_13_4=  83.9758f
 +   0:w_3_14_1= 254.5270n    0:w_3_14_1= 999.9997m    0:w_3_14_2= 999.9997m
 +   0:w_3_14_2=  83.9758f    0:w_3_14_3=  91.3588f    0:w_3_14_3= 999.9997m
 +   0:w_3_14_4= 999.9997m    0:w_3_14_4=  83.9758f    0:w_3_15_1= 254.5270n
 +   0:w_3_15_1= 999.9997m    0:w_3_15_2= 999.9997m    0:w_3_15_2=  83.9758f
 +   0:w_3_15_3=  91.3588f    0:w_3_15_3= 999.9997m    0:w_3_15_4= 999.9997m
 +   0:w_3_15_4=  83.9758f    0:w_3_16_1= 254.5270n    0:w_3_16_1= 999.9997m
 +   0:w_3_16_2= 999.9997m    0:w_3_16_2=  83.9758f    0:w_3_16_3=  91.3588f
 +   0:w_3_16_3= 999.9997m    0:w_3_16_4= 999.9997m    0:w_3_16_4=  83.9758f
 +   0:w_3_17_1= 254.5270n    0:w_3_17_1= 999.9997m    0:w_3_17_2= 999.9997m
 +   0:w_3_17_2=  83.9758f    0:w_3_17_3=  91.3588f    0:w_3_17_3= 999.9997m
 +   0:w_3_17_4= 999.9997m    0:w_3_17_4=  83.9758f    0:w_3_18_1= 254.5270n
 +   0:w_3_18_1= 999.9997m    0:w_3_18_2= 999.9997m    0:w_3_18_2=  83.9758f
 +   0:w_3_18_3=  91.3588f    0:w_3_18_3= 999.9997m    0:w_3_18_4= 999.9997m
 +   0:w_3_18_4=  83.9758f    0:w_3_19_1= 254.5270n    0:w_3_19_1= 999.9997m
 +   0:w_3_19_2= 999.9997m    0:w_3_19_2=  83.9758f    0:w_3_19_3=  91.3588f
 +   0:w_3_19_3= 999.9997m    0:w_3_19_4= 999.9997m    0:w_3_19_4=  83.9758f
 +   0:w_3_1_1 = 254.5270n    0:w_3_1_1_= 999.9997m    0:w_3_1_2 = 999.9997m
 +   0:w_3_1_2_=  83.9758f    0:w_3_1_3 =  91.3588f    0:w_3_1_3_= 999.9997m
 +   0:w_3_1_4 = 999.9997m    0:w_3_1_4_=  83.9758f    0:w_3_20_1= 254.5270n
 +   0:w_3_20_1= 999.9997m    0:w_3_20_2= 999.9997m    0:w_3_20_2=  83.9758f
 +   0:w_3_20_3=  91.3588f    0:w_3_20_3= 999.9997m    0:w_3_20_4= 999.9997m
 +   0:w_3_20_4=  83.9758f    0:w_3_21_1= 254.5270n    0:w_3_21_1= 999.9997m
 +   0:w_3_21_2= 999.9997m    0:w_3_21_2=  83.9758f    0:w_3_21_3=  91.3588f
 +   0:w_3_21_3= 999.9997m    0:w_3_21_4= 999.9997m    0:w_3_21_4=  83.9758f
 +   0:w_3_22_1= 254.5270n    0:w_3_22_1= 999.9997m    0:w_3_22_2= 999.9997m
 +   0:w_3_22_2=  83.9758f    0:w_3_22_3=  91.3588f    0:w_3_22_3= 999.9997m
 +   0:w_3_22_4= 999.9997m    0:w_3_22_4=  83.9758f    0:w_3_23_1= 254.5270n
 +   0:w_3_23_1= 999.9997m    0:w_3_23_2= 999.9997m    0:w_3_23_2=  83.9758f
 +   0:w_3_23_3=  91.3588f    0:w_3_23_3= 999.9997m    0:w_3_23_4= 999.9997m
 +   0:w_3_23_4=  83.9758f    0:w_3_24_1= 254.5270n    0:w_3_24_1= 999.9997m
 +   0:w_3_24_2= 999.9997m    0:w_3_24_2=  83.9758f    0:w_3_24_3=  91.3588f
 +   0:w_3_24_3= 999.9997m    0:w_3_24_4= 999.9997m    0:w_3_24_4=  83.9758f
 +   0:w_3_25_1= 254.5270n    0:w_3_25_1= 999.9997m    0:w_3_25_2= 999.9997m
 +   0:w_3_25_2=  83.9758f    0:w_3_25_3=  91.3588f    0:w_3_25_3= 999.9997m
 +   0:w_3_25_4= 999.9997m    0:w_3_25_4=  83.9758f    0:w_3_26_1= 254.5270n
 +   0:w_3_26_1= 999.9997m    0:w_3_26_2= 999.9997m    0:w_3_26_2=  83.9758f
 +   0:w_3_26_3=  91.3588f    0:w_3_26_3= 999.9997m    0:w_3_26_4= 999.9997m
 +   0:w_3_26_4=  83.9758f    0:w_3_27_1= 254.5270n    0:w_3_27_1= 999.9997m
 +   0:w_3_27_2= 999.9997m    0:w_3_27_2=  83.9758f    0:w_3_27_3=  91.3588f
 +   0:w_3_27_3= 999.9997m    0:w_3_27_4= 999.9997m    0:w_3_27_4=  83.9758f
 +   0:w_3_28_1= 254.5270n    0:w_3_28_1= 999.9997m    0:w_3_28_2= 999.9997m
 +   0:w_3_28_2=  83.9758f    0:w_3_28_3=  91.3588f    0:w_3_28_3= 999.9997m
 +   0:w_3_28_4= 999.9997m    0:w_3_28_4=  83.9758f    0:w_3_29_1= 254.5270n
 +   0:w_3_29_1= 999.9997m    0:w_3_29_2= 999.9997m    0:w_3_29_2=  83.9758f
 +   0:w_3_29_3=  91.3588f    0:w_3_29_3= 999.9997m    0:w_3_29_4= 999.9997m
 +   0:w_3_29_4=  83.9758f    0:w_3_2_1 = 254.5270n    0:w_3_2_1_= 999.9997m
 +   0:w_3_2_2 = 999.9997m    0:w_3_2_2_=  83.9758f    0:w_3_2_3 =  91.3588f
 +   0:w_3_2_3_= 999.9997m    0:w_3_2_4 = 999.9997m    0:w_3_2_4_=  83.9758f
 +   0:w_3_30_1= 254.5270n    0:w_3_30_1= 999.9997m    0:w_3_30_2= 999.9997m
 +   0:w_3_30_2=  83.9758f    0:w_3_30_3=  91.3588f    0:w_3_30_3= 999.9997m
 +   0:w_3_30_4= 999.9997m    0:w_3_30_4=  83.9758f    0:w_3_31_1= 254.5270n
 +   0:w_3_31_1= 999.9997m    0:w_3_31_2= 999.9997m    0:w_3_31_2=  83.9758f
 +   0:w_3_31_3=  91.3588f    0:w_3_31_3= 999.9997m    0:w_3_31_4= 999.9997m
 +   0:w_3_31_4=  83.9758f    0:w_3_32_1= 254.5270n    0:w_3_32_1= 999.9997m
 +   0:w_3_32_2= 999.9997m    0:w_3_32_2=  83.9758f    0:w_3_32_3=  91.3588f
 +   0:w_3_32_3= 999.9997m    0:w_3_32_4= 999.9997m    0:w_3_32_4=  83.9758f
 +   0:w_3_3_1 = 254.5270n    0:w_3_3_1_= 999.9997m    0:w_3_3_2 = 999.9997m
 +   0:w_3_3_2_=  83.9758f    0:w_3_3_3 =  91.3588f    0:w_3_3_3_= 999.9997m
 +   0:w_3_3_4 = 999.9997m    0:w_3_3_4_=  83.9758f    0:w_3_4_1 = 254.5270n
 +   0:w_3_4_1_= 999.9997m    0:w_3_4_2 = 999.9997m    0:w_3_4_2_=  83.9758f
 +   0:w_3_4_3 =  91.3588f    0:w_3_4_3_= 999.9997m    0:w_3_4_4 = 999.9997m
 +   0:w_3_4_4_=  83.9758f    0:w_3_5_1 = 254.5270n    0:w_3_5_1_= 999.9997m
 +   0:w_3_5_2 = 999.9997m    0:w_3_5_2_=  83.9758f    0:w_3_5_3 =  91.3588f
 +   0:w_3_5_3_= 999.9997m    0:w_3_5_4 = 999.9997m    0:w_3_5_4_=  83.9758f
 +   0:w_3_6_1 = 254.5270n    0:w_3_6_1_= 999.9997m    0:w_3_6_2 = 999.9997m
 +   0:w_3_6_2_=  83.9758f    0:w_3_6_3 =  91.3588f    0:w_3_6_3_= 999.9997m
 +   0:w_3_6_4 = 999.9997m    0:w_3_6_4_=  83.9758f    0:w_3_7_1 = 254.5270n
 +   0:w_3_7_1_= 999.9997m    0:w_3_7_2 = 999.9997m    0:w_3_7_2_=  83.9758f
 +   0:w_3_7_3 =  91.3588f    0:w_3_7_3_= 999.9997m    0:w_3_7_4 = 999.9997m
 +   0:w_3_7_4_=  83.9758f    0:w_3_8_1 = 254.5270n    0:w_3_8_1_= 999.9997m
 +   0:w_3_8_2 = 999.9997m    0:w_3_8_2_=  83.9758f    0:w_3_8_3 =  91.3588f
 +   0:w_3_8_3_= 999.9997m    0:w_3_8_4 = 999.9997m    0:w_3_8_4_=  83.9758f
 +   0:w_3_9_1 = 254.5270n    0:w_3_9_1_= 999.9997m    0:w_3_9_2 = 999.9997m
 +   0:w_3_9_2_=  83.9758f    0:w_3_9_3 =  91.3588f    0:w_3_9_3_= 999.9997m
 +   0:w_3_9_4 = 999.9997m    0:w_3_9_4_=  83.9758f    0:w_4_10_1= 254.5270n
 +   0:w_4_10_1= 999.9997m    0:w_4_10_2= 999.9997m    0:w_4_10_2=  83.9758f
 +   0:w_4_10_3=  91.3588f    0:w_4_10_3= 999.9997m    0:w_4_10_4= 999.9997m
 +   0:w_4_10_4=  83.9758f    0:w_4_11_1= 254.5270n    0:w_4_11_1= 999.9997m
 +   0:w_4_11_2= 999.9997m    0:w_4_11_2=  83.9758f    0:w_4_11_3=  91.3588f
 +   0:w_4_11_3= 999.9997m    0:w_4_11_4= 999.9997m    0:w_4_11_4=  83.9758f
 +   0:w_4_12_1= 254.5270n    0:w_4_12_1= 999.9997m    0:w_4_12_2= 999.9997m
 +   0:w_4_12_2=  83.9758f    0:w_4_12_3=  91.3588f    0:w_4_12_3= 999.9997m
 +   0:w_4_12_4= 999.9997m    0:w_4_12_4=  83.9758f    0:w_4_13_1= 254.5270n
 +   0:w_4_13_1= 999.9997m    0:w_4_13_2= 999.9997m    0:w_4_13_2=  83.9758f
 +   0:w_4_13_3=  91.3588f    0:w_4_13_3= 999.9997m    0:w_4_13_4= 999.9997m
 +   0:w_4_13_4=  83.9758f    0:w_4_14_1= 254.5270n    0:w_4_14_1= 999.9997m
 +   0:w_4_14_2= 999.9997m    0:w_4_14_2=  83.9758f    0:w_4_14_3=  91.3588f
 +   0:w_4_14_3= 999.9997m    0:w_4_14_4= 999.9997m    0:w_4_14_4=  83.9758f
 +   0:w_4_15_1= 254.5270n    0:w_4_15_1= 999.9997m    0:w_4_15_2= 999.9997m
 +   0:w_4_15_2=  83.9758f    0:w_4_15_3=  91.3588f    0:w_4_15_3= 999.9997m
 +   0:w_4_15_4= 999.9997m    0:w_4_15_4=  83.9758f    0:w_4_16_1= 254.5270n
 +   0:w_4_16_1= 999.9997m    0:w_4_16_2= 999.9997m    0:w_4_16_2=  83.9758f
 +   0:w_4_16_3=  91.3588f    0:w_4_16_3= 999.9997m    0:w_4_16_4= 999.9997m
 +   0:w_4_16_4=  83.9758f    0:w_4_17_1= 254.5270n    0:w_4_17_1= 999.9997m
 +   0:w_4_17_2= 999.9997m    0:w_4_17_2=  83.9758f    0:w_4_17_3=  91.3588f
 +   0:w_4_17_3= 999.9997m    0:w_4_17_4= 999.9997m    0:w_4_17_4=  83.9758f
 +   0:w_4_18_1= 254.5270n    0:w_4_18_1= 999.9997m    0:w_4_18_2= 999.9997m
 +   0:w_4_18_2=  83.9758f    0:w_4_18_3=  91.3588f    0:w_4_18_3= 999.9997m
 +   0:w_4_18_4= 999.9997m    0:w_4_18_4=  83.9758f    0:w_4_19_1= 254.5270n
 +   0:w_4_19_1= 999.9997m    0:w_4_19_2= 999.9997m    0:w_4_19_2=  83.9758f
 +   0:w_4_19_3=  91.3588f    0:w_4_19_3= 999.9997m    0:w_4_19_4= 999.9997m
 +   0:w_4_19_4=  83.9758f    0:w_4_1_1 = 254.5270n    0:w_4_1_1_= 999.9997m
 +   0:w_4_1_2 = 999.9997m    0:w_4_1_2_=  83.9758f    0:w_4_1_3 =  91.3588f
 +   0:w_4_1_3_= 999.9997m    0:w_4_1_4 = 999.9997m    0:w_4_1_4_=  83.9758f
 +   0:w_4_20_1= 254.5270n    0:w_4_20_1= 999.9997m    0:w_4_20_2= 999.9997m
 +   0:w_4_20_2=  83.9758f    0:w_4_20_3=  91.3588f    0:w_4_20_3= 999.9997m
 +   0:w_4_20_4= 999.9997m    0:w_4_20_4=  83.9758f    0:w_4_21_1= 254.5270n
 +   0:w_4_21_1= 999.9997m    0:w_4_21_2= 999.9997m    0:w_4_21_2=  83.9758f
 +   0:w_4_21_3=  91.3588f    0:w_4_21_3= 999.9997m    0:w_4_21_4= 999.9997m
 +   0:w_4_21_4=  83.9758f    0:w_4_22_1= 254.5270n    0:w_4_22_1= 999.9997m
 +   0:w_4_22_2= 999.9997m    0:w_4_22_2=  83.9758f    0:w_4_22_3=  91.3588f
 +   0:w_4_22_3= 999.9997m    0:w_4_22_4= 999.9997m    0:w_4_22_4=  83.9758f
 +   0:w_4_23_1= 254.5270n    0:w_4_23_1= 999.9997m    0:w_4_23_2= 999.9997m
 +   0:w_4_23_2=  83.9758f    0:w_4_23_3=  91.3588f    0:w_4_23_3= 999.9997m
 +   0:w_4_23_4= 999.9997m    0:w_4_23_4=  83.9758f    0:w_4_24_1= 254.5270n
 +   0:w_4_24_1= 999.9997m    0:w_4_24_2= 999.9997m    0:w_4_24_2=  83.9758f
 +   0:w_4_24_3=  91.3588f    0:w_4_24_3= 999.9997m    0:w_4_24_4= 999.9997m
 +   0:w_4_24_4=  83.9758f    0:w_4_25_1= 254.5270n    0:w_4_25_1= 999.9997m
 +   0:w_4_25_2= 999.9997m    0:w_4_25_2=  83.9758f    0:w_4_25_3=  91.3588f
 +   0:w_4_25_3= 999.9997m    0:w_4_25_4= 999.9997m    0:w_4_25_4=  83.9758f
 +   0:w_4_26_1= 254.5270n    0:w_4_26_1= 999.9997m    0:w_4_26_2= 999.9997m
 +   0:w_4_26_2=  83.9758f    0:w_4_26_3=  91.3588f    0:w_4_26_3= 999.9997m
 +   0:w_4_26_4= 999.9997m    0:w_4_26_4=  83.9758f    0:w_4_27_1= 254.5270n
 +   0:w_4_27_1= 999.9997m    0:w_4_27_2= 999.9997m    0:w_4_27_2=  83.9758f
 +   0:w_4_27_3=  91.3588f    0:w_4_27_3= 999.9997m    0:w_4_27_4= 999.9997m
 +   0:w_4_27_4=  83.9758f    0:w_4_28_1= 254.5270n    0:w_4_28_1= 999.9997m
 +   0:w_4_28_2= 999.9997m    0:w_4_28_2=  83.9758f    0:w_4_28_3=  91.3588f
 +   0:w_4_28_3= 999.9997m    0:w_4_28_4= 999.9997m    0:w_4_28_4=  83.9758f
 +   0:w_4_29_1= 254.5270n    0:w_4_29_1= 999.9997m    0:w_4_29_2= 999.9997m
 +   0:w_4_29_2=  83.9758f    0:w_4_29_3=  91.3588f    0:w_4_29_3= 999.9997m
 +   0:w_4_29_4= 999.9997m    0:w_4_29_4=  83.9758f    0:w_4_2_1 = 254.5270n
 +   0:w_4_2_1_= 999.9997m    0:w_4_2_2 = 999.9997m    0:w_4_2_2_=  83.9758f
 +   0:w_4_2_3 =  91.3588f    0:w_4_2_3_= 999.9997m    0:w_4_2_4 = 999.9997m
 +   0:w_4_2_4_=  83.9758f    0:w_4_30_1= 254.5270n    0:w_4_30_1= 999.9997m
 +   0:w_4_30_2= 999.9997m    0:w_4_30_2=  83.9758f    0:w_4_30_3=  91.3588f
 +   0:w_4_30_3= 999.9997m    0:w_4_30_4= 999.9997m    0:w_4_30_4=  83.9758f
 +   0:w_4_31_1= 254.5270n    0:w_4_31_1= 999.9997m    0:w_4_31_2= 999.9997m
 +   0:w_4_31_2=  83.9758f    0:w_4_31_3=  91.3588f    0:w_4_31_3= 999.9997m
 +   0:w_4_31_4= 999.9997m    0:w_4_31_4=  83.9758f    0:w_4_32_1= 254.5270n
 +   0:w_4_32_1= 999.9997m    0:w_4_32_2= 999.9997m    0:w_4_32_2=  83.9758f
 +   0:w_4_32_3=  91.3588f    0:w_4_32_3= 999.9997m    0:w_4_32_4= 999.9997m
 +   0:w_4_32_4=  83.9758f    0:w_4_3_1 = 254.5270n    0:w_4_3_1_= 999.9997m
 +   0:w_4_3_2 = 999.9997m    0:w_4_3_2_=  83.9758f    0:w_4_3_3 =  91.3588f
 +   0:w_4_3_3_= 999.9997m    0:w_4_3_4 = 999.9997m    0:w_4_3_4_=  83.9758f
 +   0:w_4_4_1 = 254.5270n    0:w_4_4_1_= 999.9997m    0:w_4_4_2 = 999.9997m
 +   0:w_4_4_2_=  83.9758f    0:w_4_4_3 =  91.3588f    0:w_4_4_3_= 999.9997m
 +   0:w_4_4_4 = 999.9997m    0:w_4_4_4_=  83.9758f    0:w_4_5_1 = 254.5270n
 +   0:w_4_5_1_= 999.9997m    0:w_4_5_2 = 999.9997m    0:w_4_5_2_=  83.9758f
 +   0:w_4_5_3 =  91.3588f    0:w_4_5_3_= 999.9997m    0:w_4_5_4 = 999.9997m
 +   0:w_4_5_4_=  83.9758f    0:w_4_6_1 = 254.5270n    0:w_4_6_1_= 999.9997m
 +   0:w_4_6_2 = 999.9997m    0:w_4_6_2_=  83.9758f    0:w_4_6_3 =  91.3588f
 +   0:w_4_6_3_= 999.9997m    0:w_4_6_4 = 999.9997m    0:w_4_6_4_=  83.9758f
 +   0:w_4_7_1 = 254.5270n    0:w_4_7_1_= 999.9997m    0:w_4_7_2 = 999.9997m
 +   0:w_4_7_2_=  83.9758f    0:w_4_7_3 =  91.3588f    0:w_4_7_3_= 999.9997m
 +   0:w_4_7_4 = 999.9997m    0:w_4_7_4_=  83.9758f    0:w_4_8_1 = 254.5270n
 +   0:w_4_8_1_= 999.9997m    0:w_4_8_2 = 999.9997m    0:w_4_8_2_=  83.9758f
 +   0:w_4_8_3 =  91.3588f    0:w_4_8_3_= 999.9997m    0:w_4_8_4 = 999.9997m
 +   0:w_4_8_4_=  83.9758f    0:w_4_9_1 = 254.5270n    0:w_4_9_1_= 999.9997m
 +   0:w_4_9_2 = 999.9997m    0:w_4_9_2_=  83.9758f    0:w_4_9_3 =  91.3588f
 +   0:w_4_9_3_= 999.9997m    0:w_4_9_4 = 999.9997m    0:w_4_9_4_=  83.9758f
 +   0:wl_1_1  = 700.0000m    0:wl_1_2  =   0.         0:wl_1_3  =   0.     
 +   0:wl_1_4  =   0.         0:wl_2_1  = 700.0000m    0:wl_2_2  =   0.     
 +   0:wl_2_3  =   0.         0:wl_2_4  =   0.         0:wl_3_1  = 700.0000m
 +   0:wl_3_2  =   0.         0:wl_3_3  =   0.         0:wl_3_4  =   0.     
 +   0:wl_4_1  = 700.0000m    0:wl_4_2  =   0.         0:wl_4_3  =   0.     
 +   0:wl_4_4  =   0.         1:input1  = 165.6772n    1:q1      = 699.9938m
 +   2:input1  = 699.9938m    2:q1      =  14.3712n    3:input1  = 165.6772n
 +   3:q1      = 699.9938m    4:input1  = 166.6360n    4:q1      =  14.6613n
 +   5:input1  = 165.6772n    5:q1      = 699.9938m    6:input1  = 699.9938m
 +   6:q1      =  14.3712n    7:input1  = 165.6772n    7:q1      = 699.9938m
 +   8:input1  = 699.9938m    8:q1      =  14.3712n    9:input1  = 699.9938m
 +   9:q1      = 699.9938m   10:input1  = 166.6360n   10:q1      =  14.6613n
 +  11:input1  = 699.9938m   11:q1      = 699.9938m   12:input1  = 166.6360n
 +  12:q1      =  14.6613n   13:input1  = 699.9938m   13:q1      = 699.9938m
 +  14:input1  = 166.6360n   14:q1      =  14.6613n   15:input1  = 699.9938m
 +  15:q1      = 699.9938m   16:input1  = 699.9938m   16:q1      =  14.3712n
 +  17:input1  = 165.6772n   17:q1      = 699.9938m   18:input1  = 166.6360n
 +  18:q1      =  14.6613n   19:input1  = 699.9938m   19:q1      = 699.9938m
 +  20:input1  = 166.6360n   20:q1      =  14.6613n   21:input1  = 699.9938m
 +  21:q1      = 699.9938m   22:input1  = 166.6360n   22:q1      =  14.6613n
 +  23:input1  = 699.9938m   23:q1      = 699.9938m   24:input1  = 699.9938m
 +  24:q1      =  14.3712n   25:input1  = 699.9938m   25:q1      = 699.9938m
 +  26:input1  = 699.9938m   26:q1      =  14.3712n   27:input1  = 165.6772n
 +  27:q1      = 699.9938m   28:input1  = 166.6360n   28:q1      =  14.6613n
 +  29:input1  = 699.9938m   29:q1      = 699.9938m   30:input1  = 166.6360n
 +  30:q1      =  14.6613n   31:input1  = 165.6772n   31:q1      = 699.9938m
 +  32:input1  = 699.9938m   32:q1      =  14.3712n   33:input1  = 165.6772n
 +  33:q1      = 699.9938m   34:input1  = 166.6360n   34:q1      =  14.6613n
 +  35:input1  = 165.6772n   35:q1      = 699.9938m   36:input1  = 699.9938m
 +  36:q1      =  14.3712n   37:input1  = 699.9938m   37:q1      = 699.9938m
 +  38:input1  = 699.9938m   38:q1      =  14.3712n   39:input1  = 699.9938m
 +  39:q1      = 699.9938m   40:input1  = 699.9938m   40:q1      =  14.3712n
 +  41:input1  = 699.9938m   41:q1      = 699.9938m   42:input1  = 699.9938m
 +  42:q1      =  14.3712n   43:input1  = 165.6772n   43:q1      = 699.9938m
 +  44:input1  = 699.9938m   44:q1      =  14.3712n   45:input1  = 165.6772n
 +  45:q1      = 699.9938m   46:input1  = 166.6360n   46:q1      =  14.6613n
 +  47:input1  = 699.9938m   47:q1      = 699.9938m   48:input1  = 699.9938m
 +  48:q1      =  14.3712n   49:input1  = 699.9938m   49:q1      = 699.9938m
 +  50:input1  = 166.6360n   50:q1      =  14.6613n   51:input1  = 699.9938m
 +  51:q1      = 699.9938m   52:input1  = 699.9938m   52:q1      =  14.3712n
 +  53:input1  = 699.9938m   53:q1      = 699.9938m   54:input1  = 699.9938m
 +  54:q1      =  14.3712n   55:input1  = 165.6772n   55:q1      = 699.9938m
 +  56:input1  = 699.9938m   56:q1      =  14.3712n   57:input1  = 165.6772n
 +  57:q1      = 699.9938m   58:input1  = 699.9938m   58:q1      =  14.3712n
 +  59:input1  = 165.6772n   59:q1      = 699.9938m   60:input1  = 699.9938m
 +  60:q1      =  14.3712n   61:input1  = 165.6772n   61:q1      = 699.9938m
 +  62:input1  = 166.6360n   62:q1      =  14.6613n   63:input1  = 165.6772n
 +  63:q1      = 699.9938m   64:input1  = 166.6360n   64:q1      =  14.6613n
 +  65:input1  = 699.9938m   65:q1      = 699.9938m   66:input1  = 166.6360n
 +  66:q1      =  14.6613n   67:input1  = 699.9938m   67:q1      = 699.9938m
 +  68:input1  = 166.6360n   68:q1      =  14.6613n   69:input1  = 165.6772n
 +  69:q1      = 699.9938m   70:input1  = 699.9938m   70:q1      =  14.3712n
 +  71:input1  = 165.6772n   71:q1      = 699.9938m   72:input1  = 166.6360n
 +  72:q1      =  14.6613n   73:input1  = 699.9938m   73:q1      = 699.9938m
 +  74:input1  = 699.9938m   74:q1      =  14.3712n   75:input1  = 699.9938m
 +  75:q1      = 699.9938m   76:input1  = 166.6360n   76:q1      =  14.6613n
 +  77:input1  = 699.9938m   77:q1      = 699.9938m   78:input1  = 699.9938m
 +  78:q1      =  14.3712n   79:input1  = 165.6772n   79:q1      = 699.9938m
 +  80:input1  = 699.9938m   80:q1      =  14.3712n   81:input1  = 699.9938m
 +  81:q1      = 699.9938m   82:input1  = 699.9938m   82:q1      =  14.3712n
 +  83:input1  = 699.9938m   83:q1      = 699.9938m   84:input1  = 699.9938m
 +  84:q1      =  14.3712n   85:input1  = 165.6772n   85:q1      = 699.9938m
 +  86:input1  = 166.6360n   86:q1      =  14.6613n   87:input1  = 165.6772n
 +  87:q1      = 699.9938m   88:input1  = 166.6360n   88:q1      =  14.6613n
 +  89:input1  = 699.9938m   89:q1      = 699.9938m   90:input1  = 699.9938m
 +  90:q1      =  14.3712n   91:input1  = 165.6772n   91:q1      = 699.9938m
 +  92:input1  = 166.6360n   92:q1      =  14.6613n   93:input1  = 699.9938m
 +  93:q1      = 699.9938m   94:input1  = 166.6360n   94:q1      =  14.6613n
 +  95:input1  = 165.6772n   95:q1      = 699.9938m   96:input1  = 699.9938m
 +  96:q1      =  14.3712n   97:input1  = 699.9938m   97:q1      = 699.9938m
 +  98:input1  = 166.6360n   98:q1      =  14.6613n   99:input1  = 699.9938m
 +  99:q1      = 699.9938m  100:input1  = 699.9938m  100:q1      =  14.3712n
 + 101:input1  = 699.9938m  101:q1      = 699.9938m  102:input1  = 699.9938m
 + 102:q1      =  14.3712n  103:input1  = 165.6772n  103:q1      = 699.9938m
 + 104:input1  = 166.6360n  104:q1      =  14.6613n  105:input1  = 699.9938m
 + 105:q1      = 699.9938m  106:input1  = 699.9938m  106:q1      =  14.3712n
 + 107:input1  = 165.6772n  107:q1      = 699.9938m  108:input1  = 699.9938m
 + 108:q1      =  14.3712n  109:input1  = 699.9938m  109:q1      = 699.9938m
 + 110:input1  = 699.9938m  110:q1      =  14.3712n  111:input1  = 699.9938m
 + 111:q1      = 699.9938m  112:input1  = 166.6360n  112:q1      =  14.6613n
 + 113:input1  = 699.9938m  113:q1      = 699.9938m  114:input1  = 699.9938m
 + 114:q1      =  14.3712n  115:input1  = 165.6772n  115:q1      = 699.9938m
 + 116:input1  = 166.6360n  116:q1      =  14.6613n  117:input1  = 165.6772n
 + 117:q1      = 699.9938m  118:input1  = 166.6360n  118:q1      =  14.6613n
 + 119:input1  = 699.9938m  119:q1      = 699.9938m  120:input1  = 166.6360n
 + 120:q1      =  14.6613n  121:input1  = 165.6772n  121:q1      = 699.9938m
 + 122:input1  = 699.9938m  122:q1      =  14.3712n  123:input1  = 699.9938m
 + 123:q1      = 699.9938m  124:input1  = 166.6360n  124:q1      =  14.6613n
 + 125:input1  = 699.9938m  125:q1      = 699.9938m  126:input1  = 699.9938m
 + 126:q1      =  14.3712n  127:input1  = 699.9938m  127:q1      = 699.9938m
 + 128:input1  = 699.9938m  128:q1      =  14.3712n  129:input1  = 699.9938m
 + 129:q1      = 699.9938m  130:input1  = 166.6360n  130:q1      =  14.6613n
 + 131:input1  = 165.6772n  131:q1      = 699.9938m  132:input1  = 699.9938m
 + 132:q1      =  14.3712n  133:input1  = 699.9938m  133:q1      = 699.9938m
 + 134:input1  = 166.6360n  134:q1      =  14.6613n  135:input1  = 699.9938m
 + 135:q1      = 699.9938m  136:input1  = 166.6360n  136:q1      =  14.6613n
 + 137:input1  = 165.6772n  137:q1      = 699.9938m  138:input1  = 699.9938m
 + 138:q1      =  14.3712n  139:input1  = 165.6772n  139:q1      = 699.9938m
 + 140:input1  = 699.9938m  140:q1      =  14.3712n  141:input1  = 165.6772n
 + 141:q1      = 699.9938m  142:input1  = 699.9938m  142:q1      =  14.3712n
 + 143:input1  = 165.6772n  143:q1      = 699.9938m  144:input1  = 699.9938m
 + 144:q1      =  14.3712n  145:input1  = 165.6772n  145:q1      = 699.9938m
 + 146:input1  = 699.9938m  146:q1      =  14.3712n  147:input1  = 165.6772n
 + 147:q1      = 699.9938m  148:input1  = 699.9938m  148:q1      =  14.3712n
 + 149:input1  = 165.6772n  149:q1      = 699.9938m  150:input1  = 699.9938m
 + 150:q1      =  14.3712n  151:input1  = 699.9938m  151:q1      = 699.9938m
 + 152:input1  = 699.9938m  152:q1      =  14.3712n  153:input1  = 699.9938m
 + 153:q1      = 699.9938m  154:input1  = 166.6360n  154:q1      =  14.6613n
 + 155:input1  = 699.9938m  155:q1      = 699.9938m  156:input1  = 699.9938m
 + 156:q1      =  14.3712n  157:input1  = 699.9938m  157:q1      = 699.9938m
 + 158:input1  = 166.6360n  158:q1      =  14.6613n  159:input1  = 165.6772n
 + 159:q1      = 699.9938m  160:input1  = 699.9938m  160:q1      =  14.3712n
 + 161:input1  = 165.6772n  161:q1      = 699.9938m  162:input1  = 166.6360n
 + 162:q1      =  14.6613n  163:input1  = 165.6772n  163:q1      = 699.9938m
 + 164:input1  = 166.6360n  164:q1      =  14.6613n  165:input1  = 165.6772n
 + 165:q1      = 699.9938m  166:input1  = 166.6360n  166:q1      =  14.6613n
 + 167:input1  = 165.6772n  167:q1      = 699.9938m  168:input1  = 166.6360n
 + 168:q1      =  14.6613n  169:input1  = 165.6772n  169:q1      = 699.9938m
 + 170:input1  = 166.6360n  170:q1      =  14.6613n  171:input1  = 165.6772n
 + 171:q1      = 699.9938m  172:input1  = 699.9938m  172:q1      =  14.3712n
 + 173:input1  = 165.6772n  173:q1      = 699.9938m  174:input1  = 699.9938m
 + 174:q1      =  14.3712n  175:input1  = 699.9938m  175:q1      = 699.9938m
 + 176:input1  = 166.6360n  176:q1      =  14.6613n  177:input1  = 165.6772n
 + 177:q1      = 699.9938m  178:input1  = 166.6360n  178:q1      =  14.6613n
 + 179:input1  = 699.9938m  179:q1      = 699.9938m  180:input1  = 166.6360n
 + 180:q1      =  14.6613n  181:input1  = 165.6772n  181:q1      = 699.9938m
 + 182:input1  = 166.6360n  182:q1      =  14.6613n  183:input1  = 699.9938m
 + 183:q1      = 699.9938m  184:input1  = 699.9938m  184:q1      =  14.3712n
 + 185:input1  = 165.6772n  185:q1      = 699.9938m  186:input1  = 699.9938m
 + 186:q1      =  14.3712n  187:input1  = 699.9938m  187:q1      = 699.9938m
 + 188:input1  = 166.6360n  188:q1      =  14.6613n  189:input1  = 165.6772n
 + 189:q1      = 699.9938m  190:input1  = 699.9938m  190:q1      =  14.3712n
 + 191:input1  = 699.9938m  191:q1      = 699.9938m  192:input1  = 699.9938m
 + 192:q1      =  14.3712n  193:input1  = 165.6772n  193:q1      = 699.9938m
 + 194:input1  = 699.9938m  194:q1      =  14.3712n  195:input1  = 699.9938m
 + 195:q1      = 699.9938m  196:input1  = 699.9938m  196:q1      =  14.3712n
 + 197:input1  = 699.9938m  197:q1      = 699.9938m  198:input1  = 699.9938m
 + 198:q1      =  14.3712n  199:input1  = 165.6772n  199:q1      = 699.9938m
 + 200:input1  = 699.9938m  200:q1      =  14.3712n  201:input1  = 165.6772n
 + 201:q1      = 699.9938m  202:input1  = 699.9938m  202:q1      =  14.3712n
 + 203:input1  = 165.6772n  203:q1      = 699.9938m  204:input1  = 699.9938m
 + 204:q1      =  14.3712n  205:input1  = 699.9938m  205:q1      = 699.9938m
 + 206:input1  = 166.6360n  206:q1      =  14.6613n  207:input1  = 699.9938m
 + 207:q1      = 699.9938m  208:input1  = 699.9938m  208:q1      =  14.3712n
 + 209:input1  = 165.6772n  209:q1      = 699.9938m  210:input1  = 699.9938m
 + 210:q1      =  14.3712n  211:input1  = 699.9938m  211:q1      = 699.9938m
 + 212:input1  = 166.6360n  212:q1      =  14.6613n  213:input1  = 699.9938m
 + 213:q1      = 699.9938m  214:input1  = 699.9938m  214:q1      =  14.3712n
 + 215:input1  = 165.6772n  215:q1      = 699.9938m  216:input1  = 166.6360n
 + 216:q1      =  14.6613n  217:input1  = 699.9938m  217:q1      = 699.9938m
 + 218:input1  = 699.9938m  218:q1      =  14.3712n  219:input1  = 699.9938m
 + 219:q1      = 699.9938m  220:input1  = 166.6360n  220:q1      =  14.6613n
 + 221:input1  = 165.6772n  221:q1      = 699.9938m  222:input1  = 166.6360n
 + 222:q1      =  14.6613n  223:input1  = 165.6772n  223:q1      = 699.9938m
 + 224:input1  = 166.6360n  224:q1      =  14.6613n  225:input1  = 165.6772n
 + 225:q1      = 699.9938m  226:input1  = 166.6360n  226:q1      =  14.6613n
 + 227:input1  = 165.6772n  227:q1      = 699.9938m  228:input1  = 166.6360n
 + 228:q1      =  14.6613n  229:input1  = 699.9938m  229:q1      = 699.9938m
 + 230:input1  = 166.6360n  230:q1      =  14.6613n  231:input1  = 165.6772n
 + 231:q1      = 699.9938m  232:input1  = 166.6360n  232:q1      =  14.6613n
 + 233:input1  = 165.6772n  233:q1      = 699.9938m  234:input1  = 166.6360n
 + 234:q1      =  14.6613n  235:input1  = 165.6772n  235:q1      = 699.9938m
 + 236:input1  = 699.9938m  236:q1      =  14.3712n  237:input1  = 699.9938m
 + 237:q1      = 699.9938m  238:input1  = 166.6360n  238:q1      =  14.6613n
 + 239:input1  = 165.6772n  239:q1      = 699.9938m  240:input1  = 166.6360n
 + 240:q1      =  14.6613n  241:input1  = 165.6772n  241:q1      = 699.9938m
 + 242:input1  = 699.9938m  242:q1      =  14.3712n  243:input1  = 165.6772n
 + 243:q1      = 699.9938m  244:input1  = 166.6360n  244:q1      =  14.6613n
 + 245:input1  = 699.9938m  245:q1      = 699.9938m  246:input1  = 166.6360n
 + 246:q1      =  14.6613n  247:input1  = 699.9938m  247:q1      = 699.9938m
 + 248:input1  = 166.6360n  248:q1      =  14.6613n  249:input1  = 699.9938m
 + 249:q1      = 699.9938m  250:input1  = 699.9938m  250:q1      =  14.3712n
 + 251:input1  = 699.9938m  251:q1      = 699.9938m  252:input1  = 699.9938m
 + 252:q1      =  14.3712n  253:input1  = 699.9938m  253:q1      = 699.9938m
 + 254:input1  = 166.6360n  254:q1      =  14.6613n  255:input1  = 165.6772n
 + 255:q1      = 699.9938m  256:input1  = 699.9938m  256:q1      =  14.3712n
 + 257:input1  = 165.6772n  257:q1      = 699.9938m  258:input1  = 166.6360n
 + 258:q1      =  14.6613n  259:input1  = 165.6772n  259:q1      = 699.9938m
 + 260:input1  = 699.9938m  260:q1      =  14.3712n  261:input1  = 699.9938m
 + 261:q1      = 699.9938m  262:input1  = 699.9938m  262:q1      =  14.3712n
 + 263:input1  = 699.9938m  263:q1      = 699.9938m  264:input1  = 166.6360n
 + 264:q1      =  14.6613n  265:input1  = 699.9938m  265:q1      = 699.9938m
 + 266:input1  = 166.6360n  266:q1      =  14.6613n  267:input1  = 165.6772n
 + 267:q1      = 699.9938m  268:input1  = 699.9938m  268:q1      =  14.3712n
 + 269:input1  = 699.9938m  269:q1      = 699.9938m  270:input1  = 699.9938m
 + 270:q1      =  14.3712n  271:input1  = 165.6772n  271:q1      = 699.9938m
 + 272:input1  = 166.6360n  272:q1      =  14.6613n  273:input1  = 699.9938m
 + 273:q1      = 699.9938m  274:input1  = 699.9938m  274:q1      =  14.3712n
 + 275:input1  = 165.6772n  275:q1      = 699.9938m  276:input1  = 699.9938m
 + 276:q1      =  14.3712n  277:input1  = 699.9938m  277:q1      = 699.9938m
 + 278:input1  = 166.6360n  278:q1      =  14.6613n  279:input1  = 165.6772n
 + 279:q1      = 699.9938m  280:input1  = 699.9938m  280:q1      =  14.3712n
 + 281:input1  = 165.6772n  281:q1      = 699.9938m  282:input1  = 166.6360n
 + 282:q1      =  14.6613n  283:input1  = 699.9938m  283:q1      = 699.9938m
 + 284:input1  = 166.6360n  284:q1      =  14.6613n  285:input1  = 699.9938m
 + 285:q1      = 699.9938m  286:input1  = 699.9938m  286:q1      =  14.3712n
 + 287:input1  = 699.9938m  287:q1      = 699.9938m  288:input1  = 166.6360n
 + 288:q1      =  14.6613n  289:input1  = 165.6772n  289:q1      = 699.9938m
 + 290:input1  = 166.6360n  290:q1      =  14.6613n  291:input1  = 699.9938m
 + 291:q1      = 699.9938m  292:input1  = 166.6360n  292:q1      =  14.6613n
 + 293:input1  = 165.6772n  293:q1      = 699.9938m  294:input1  = 699.9938m
 + 294:q1      =  14.3712n  295:input1  = 699.9938m  295:q1      = 699.9938m
 + 296:input1  = 699.9938m  296:q1      =  14.3712n  297:input1  = 165.6772n
 + 297:q1      = 699.9938m  298:input1  = 699.9938m  298:q1      =  14.3712n
 + 299:input1  = 699.9938m  299:q1      = 699.9938m  300:input1  = 166.6360n
 + 300:q1      =  14.6613n  301:input1  = 165.6772n  301:q1      = 699.9938m
 + 302:input1  = 166.6360n  302:q1      =  14.6613n  303:input1  = 699.9938m
 + 303:q1      = 699.9938m  304:input1  = 699.9938m  304:q1      =  14.3712n
 + 305:input1  = 165.6772n  305:q1      = 699.9938m  306:input1  = 166.6360n
 + 306:q1      =  14.6613n  307:input1  = 699.9938m  307:q1      = 699.9938m
 + 308:input1  = 166.6360n  308:q1      =  14.6613n  309:input1  = 165.6772n
 + 309:q1      = 699.9938m  310:input1  = 166.6360n  310:q1      =  14.6613n
 + 311:input1  = 699.9938m  311:q1      = 699.9938m  312:input1  = 699.9938m
 + 312:q1      =  14.3712n  313:input1  = 699.9938m  313:q1      = 699.9938m
 + 314:input1  = 699.9938m  314:q1      =  14.3712n  315:input1  = 165.6772n
 + 315:q1      = 699.9938m  316:input1  = 166.6360n  316:q1      =  14.6613n
 + 317:input1  = 699.9938m  317:q1      = 699.9938m  318:input1  = 699.9938m
 + 318:q1      =  14.3712n  319:input1  = 165.6772n  319:q1      = 699.9938m
 + 320:input1  = 699.9938m  320:q1      =  14.3712n  321:input1  = 699.9938m
 + 321:q1      = 699.9938m  322:input1  = 166.6360n  322:q1      =  14.6613n
 + 323:input1  = 699.9938m  323:q1      = 699.9938m  324:input1  = 166.6360n
 + 324:q1      =  14.6613n  325:input1  = 699.9938m  325:q1      = 699.9938m
 + 326:input1  = 699.9938m  326:q1      =  14.3712n  327:input1  = 699.9938m
 + 327:q1      = 699.9938m  328:input1  = 699.9938m  328:q1      =  14.3712n
 + 329:input1  = 165.6772n  329:q1      = 699.9938m  330:input1  = 166.6360n
 + 330:q1      =  14.6613n  331:input1  = 699.9938m  331:q1      = 699.9938m
 + 332:input1  = 699.9938m  332:q1      =  14.3712n  333:input1  = 165.6772n
 + 333:q1      = 699.9938m  334:input1  = 699.9938m  334:q1      =  14.3712n
 + 335:input1  = 165.6772n  335:q1      = 699.9938m  336:input1  = 166.6360n
 + 336:q1      =  14.6613n  337:input1  = 165.6772n  337:q1      = 699.9938m
 + 338:input1  = 699.9938m  338:q1      =  14.3712n  339:input1  = 699.9938m
 + 339:q1      = 699.9938m  340:input1  = 699.9938m  340:q1      =  14.3712n
 + 341:input1  = 165.6772n  341:q1      = 699.9938m  342:input1  = 699.9938m
 + 342:q1      =  14.3712n  343:input1  = 699.9938m  343:q1      = 699.9938m
 + 344:input1  = 699.9938m  344:q1      =  14.3712n  345:input1  = 699.9938m
 + 345:q1      = 699.9938m  346:input1  = 166.6360n  346:q1      =  14.6613n
 + 347:input1  = 165.6772n  347:q1      = 699.9938m  348:input1  = 699.9938m
 + 348:q1      =  14.3712n  349:input1  = 699.9938m  349:q1      = 699.9938m
 + 350:input1  = 699.9938m  350:q1      =  14.3712n  351:input1  = 699.9938m
 + 351:q1      = 699.9938m  352:input1  = 699.9938m  352:q1      =  14.3712n
 + 353:input1  = 165.6772n  353:q1      = 699.9938m  354:input1  = 699.9938m
 + 354:q1      =  14.3712n  355:input1  = 165.6772n  355:q1      = 699.9938m
 + 356:input1  = 699.9938m  356:q1      =  14.3712n  357:input1  = 699.9938m
 + 357:q1      = 699.9938m  358:input1  = 166.6360n  358:q1      =  14.6613n
 + 359:input1  = 165.6772n  359:q1      = 699.9938m  360:input1  = 699.9938m
 + 360:q1      =  14.3712n  361:input1  = 165.6772n  361:q1      = 699.9938m
 + 362:input1  = 699.9938m  362:q1      =  14.3712n  363:input1  = 165.6772n
 + 363:q1      = 699.9938m  364:input1  = 699.9938m  364:q1      =  14.3712n
 + 365:input1  = 165.6772n  365:q1      = 699.9938m  366:input1  = 166.6360n
 + 366:q1      =  14.6613n  367:input1  = 165.6772n  367:q1      = 699.9938m
 + 368:input1  = 166.6360n  368:q1      =  14.6613n  369:input1  = 699.9938m
 + 369:q1      = 699.9938m  370:input1  = 166.6360n  370:q1      =  14.6613n
 + 371:input1  = 699.9938m  371:q1      = 699.9938m  372:input1  = 166.6360n
 + 372:q1      =  14.6613n  373:input1  = 165.6772n  373:q1      = 699.9938m
 + 374:input1  = 166.6360n  374:q1      =  14.6613n  375:input1  = 165.6772n
 + 375:q1      = 699.9938m  376:input1  = 166.6360n  376:q1      =  14.6613n
 + 377:input1  = 165.6772n  377:q1      = 699.9938m  378:input1  = 166.6360n
 + 378:q1      =  14.6613n  379:input1  = 165.6772n  379:q1      = 699.9938m
 + 380:input1  = 699.9938m  380:q1      =  14.3712n  381:input1  = 699.9938m
 + 381:q1      = 699.9938m  382:input1  = 699.9938m  382:q1      =  14.3712n
 + 383:input1  = 699.9938m  383:q1      = 699.9938m  384:input1  = 166.6360n
 + 384:q1      =  14.6613n  385:input1  = 165.6772n  385:q1      = 699.9938m
 + 386:input1  = 166.6360n  386:q1      =  14.6613n  387:input1  = 699.9938m
 + 387:q1      = 699.9938m  388:input1  = 699.9938m  388:q1      =  14.3712n
 + 389:input1  = 699.9938m  389:q1      = 699.9938m  390:input1  = 166.6360n
 + 390:q1      =  14.6613n  391:input1  = 165.6772n  391:q1      = 699.9938m
 + 392:input1  = 166.6360n  392:q1      =  14.6613n  393:input1  = 699.9938m
 + 393:q1      = 699.9938m  394:input1  = 699.9938m  394:q1      =  14.3712n
 + 395:input1  = 165.6772n  395:q1      = 699.9938m  396:input1  = 166.6360n
 + 396:q1      =  14.6613n  397:input1  = 699.9938m  397:q1      = 699.9938m
 + 398:input1  = 166.6360n  398:q1      =  14.6613n  399:input1  = 699.9938m
 + 399:q1      = 699.9938m  400:input1  = 166.6360n  400:q1      =  14.6613n
 + 401:input1  = 699.9938m  401:q1      = 699.9938m  402:input1  = 166.6360n
 + 402:q1      =  14.6613n  403:input1  = 165.6772n  403:q1      = 699.9938m
 + 404:input1  = 699.9938m  404:q1      =  14.3712n  405:input1  = 165.6772n
 + 405:q1      = 699.9938m  406:input1  = 166.6360n  406:q1      =  14.6613n
 + 407:input1  = 165.6772n  407:q1      = 699.9938m  408:input1  = 699.9938m
 + 408:q1      =  14.3712n  409:input1  = 165.6772n  409:q1      = 699.9938m
 + 410:input1  = 699.9938m  410:q1      =  14.3712n  411:input1  = 165.6772n
 + 411:q1      = 699.9938m  412:input1  = 166.6360n  412:q1      =  14.6613n
 + 413:input1  = 165.6772n  413:q1      = 699.9938m  414:input1  = 699.9938m
 + 414:q1      =  14.3712n  415:input1  = 165.6772n  415:q1      = 699.9938m
 + 416:input1  = 166.6360n  416:q1      =  14.6613n  417:input1  = 165.6772n
 + 417:q1      = 699.9938m  418:input1  = 166.6360n  418:q1      =  14.6613n
 + 419:input1  = 165.6772n  419:q1      = 699.9938m  420:input1  = 699.9938m
 + 420:q1      =  14.3712n  421:input1  = 699.9938m  421:q1      = 699.9938m
 + 422:input1  = 166.6360n  422:q1      =  14.6613n  423:input1  = 699.9938m
 + 423:q1      = 699.9938m  424:input1  = 699.9938m  424:q1      =  14.3712n
 + 425:input1  = 699.9938m  425:q1      = 699.9938m  426:input1  = 699.9938m
 + 426:q1      =  14.3712n  427:input1  = 165.6772n  427:q1      = 699.9938m
 + 428:input1  = 166.6360n  428:q1      =  14.6613n  429:input1  = 699.9938m
 + 429:q1      = 699.9938m  430:input1  = 166.6360n  430:q1      =  14.6613n
 + 431:input1  = 699.9938m  431:q1      = 699.9938m  432:input1  = 699.9938m
 + 432:q1      =  14.3712n  433:input1  = 699.9938m  433:q1      = 699.9938m
 + 434:input1  = 166.6360n  434:q1      =  14.6613n  435:input1  = 699.9938m
 + 435:q1      = 699.9938m  436:input1  = 699.9938m  436:q1      =  14.3712n
 + 437:input1  = 165.6772n  437:q1      = 699.9938m  438:input1  = 699.9938m
 + 438:q1      =  14.3712n  439:input1  = 165.6772n  439:q1      = 699.9938m
 + 440:input1  = 166.6360n  440:q1      =  14.6613n  441:input1  = 165.6772n
 + 441:q1      = 699.9938m  442:input1  = 699.9938m  442:q1      =  14.3712n
 + 443:input1  = 699.9938m  443:q1      = 699.9938m  444:input1  = 166.6360n
 + 444:q1      =  14.6613n  445:input1  = 699.9938m  445:q1      = 699.9938m
 + 446:input1  = 166.6360n  446:q1      =  14.6613n  447:input1  = 165.6772n
 + 447:q1      = 699.9938m  448:input1  = 166.6360n  448:q1      =  14.6613n
 + 449:input1  = 699.9938m  449:q1      = 699.9938m  450:input1  = 166.6360n
 + 450:q1      =  14.6613n  451:input1  = 699.9938m  451:q1      = 699.9938m
 + 452:input1  = 699.9938m  452:q1      =  14.3712n  453:input1  = 699.9938m
 + 453:q1      = 699.9938m  454:input1  = 166.6360n  454:q1      =  14.6613n
 + 455:input1  = 165.6772n  455:q1      = 699.9938m  456:input1  = 166.6360n
 + 456:q1      =  14.6613n  457:input1  = 699.9938m  457:q1      = 699.9938m
 + 458:input1  = 699.9938m  458:q1      =  14.3712n  459:input1  = 165.6772n
 + 459:q1      = 699.9938m  460:input1  = 699.9938m  460:q1      =  14.3712n
 + 461:input1  = 165.6772n  461:q1      = 699.9938m  462:input1  = 166.6360n
 + 462:q1      =  14.6613n  463:input1  = 165.6772n  463:q1      = 699.9938m
 + 464:input1  = 699.9938m  464:q1      =  14.3712n  465:input1  = 699.9938m
 + 465:q1      = 699.9938m  466:input1  = 699.9938m  466:q1      =  14.3712n
 + 467:input1  = 699.9938m  467:q1      = 699.9938m  468:input1  = 166.6360n
 + 468:q1      =  14.6613n  469:input1  = 699.9938m  469:q1      = 699.9938m
 + 470:input1  = 166.6360n  470:q1      =  14.6613n  471:input1  = 699.9938m
 + 471:q1      = 699.9938m  472:input1  = 699.9938m  472:q1      =  14.3712n
 + 473:input1  = 699.9938m  473:q1      = 699.9938m  474:input1  = 699.9938m
 + 474:q1      =  14.3712n  475:input1  = 699.9938m  475:q1      = 699.9938m
 + 476:input1  = 699.9938m  476:q1      =  14.3712n  477:input1  = 165.6772n
 + 477:q1      = 699.9938m  478:input1  = 166.6360n  478:q1      =  14.6613n
 + 479:input1  = 699.9938m  479:q1      = 699.9938m  480:input1  = 699.9938m
 + 480:q1      =  14.3712n  481:input1  = 699.9938m  481:q1      = 699.9938m
 + 482:input1  = 699.9938m  482:q1      =  14.3712n  483:input1  = 699.9938m
 + 483:q1      = 699.9938m  484:input1  = 699.9938m  484:q1      =  14.3712n
 + 485:input1  = 699.9938m  485:q1      = 699.9938m  486:input1  = 166.6360n
 + 486:q1      =  14.6613n  487:input1  = 165.6772n  487:q1      = 699.9938m
 + 488:input1  = 166.6360n  488:q1      =  14.6613n  489:input1  = 165.6772n
[...]
 +1635:n1      =  22.5621a 1636:n1      =  22.5675a 1638:n1      =  22.5600a
 +1639:n1      =  22.5621a 1640:n1      =  53.7240a 1642:n1      =  53.7240a
 +1643:n1      =  53.7240a 1644:n1      =  22.5621a 1646:n1      =  22.5600a
 +1647:n1      =  22.5621a 1648:n1      =  53.7240a 1650:n1      =  53.7240a
 +1651:n1      =  53.7240a 1652:n1      =  22.5621a 1654:n1      =  22.5600a
 +1655:n1      =  53.7240a 1656:n1      =  38.1466a 1658:n1      =  53.7240a
 +1659:n1      =  53.7240a 1660:n1      =  22.5621a 1662:n1      =  22.5600a
 +1663:n1      =  22.5621a 1664:n1      =  53.7240a 1666:n1      =  53.7240a
 +1667:n1      =  22.5621a 1668:n1      =  22.5675a 1670:n1      =  22.5600a
 +1671:n1      =  22.5621a 1672:n1      =  53.7240a 1674:n1      =  53.7240a
 +1675:n1      =  53.7240a 1676:n1      =  22.5621a 1678:n1      =  22.5600a
 +1679:n1      =  22.5621a 1680:n1      =  53.7240a 1682:n1      =  53.7240a
 +1683:n1      =  22.5621a 1684:n1      =  22.5675a 1686:n1      =  22.5600a
 +1687:n1      =  53.7240a 1688:n1      =  38.1466a 1690:n1      =  53.7240a
 +1691:n1      =  53.7240a 1692:n1      =  22.5621a 1694:n1      =  22.5600a
 +1695:n1      =  53.7240a 1696:n1      =  38.1466a 1698:n1      =  53.7240a
 +1699:n1      =  22.5621a 1700:n1      =  22.5675a 1702:n1      =  22.5600a
 +1703:n1      =  53.7240a 1704:n1      =  38.1466a 1706:n1      =  53.7240a
 +1707:n1      =  53.7240a 1708:n1      =  22.5621a 1710:n1      =  22.5600a
 +1711:n1      =  22.5621a 1712:n1      =  53.7240a 1714:n1      =  53.7240a
 +1715:n1      =  22.5621a 1716:n1      =  22.5675a 1718:n1      =  22.5600a
 +1719:n1      =  22.5621a 1720:n1      =  53.7240a 1722:n1      =  53.7240a
 +1723:n1      =  53.7240a 1724:n1      =  22.5621a 1726:n1      =  22.5600a
 +1727:n1      =  53.7240a 1728:n1      =  38.1466a 1730:n1      =  53.7240a
 +1731:n1      =  22.5621a 1732:n1      =  22.5675a 1734:n1      =  22.5600a
 +1735:n1      =  22.5621a 1736:n1      =  53.7240a 1738:n1      =  53.7240a
 +1739:n1      =  53.7240a 1740:n1      =  22.5621a 1742:n1      =  22.5600a
 +1743:n1      =  22.5621a 1744:n1      =  53.7240a 1746:n1      =  53.7240a
 +1747:n1      =  22.5621a 1748:n1      =  22.5675a 1750:n1      =  22.5600a
 +1751:n1      =  22.5621a 1752:n1      =  53.7240a 1754:n1      =  53.7240a
 +1755:n1      =  53.7240a 1756:n1      =  22.5621a 1758:n1      =  22.5600a
 +1759:n1      =  53.7240a 1760:n1      =  38.1466a 1762:n1      =  53.7240a
 +1763:n1      =  53.7240a 1764:n1      =  22.5621a 1766:n1      =  22.5600a
 +1767:n1      =  53.7240a 1768:n1      =  38.1466a 1770:n1      =  53.7240a
 +1771:n1      =  22.5621a 1772:n1      =  22.5675a 1774:n1      =  22.5600a
 +1775:n1      =  22.5621a 1776:n1      =  53.7240a 1778:n1      =  53.7240a
 +1779:n1      =  53.7240a 1780:n1      =  22.5621a 1782:n1      =  22.5600a
 +1783:n1      =  53.7240a 1784:n1      =  38.1466a 1786:n1      =  53.7240a
 +1787:n1      =  22.5621a 1788:n1      =  22.5675a 1790:n1      =  22.5600a
 +1791:n1      =  53.7240a 1792:n1      =  38.1466a 1794:n1      =  53.7240a
 +1795:n1      =  53.7240a 1796:n1      =  22.5621a 1798:n1      =  22.5600a
 +1799:n1      =  22.5621a 1800:n1      =  53.7240a 1802:n1      =  53.7240a
 +1803:n1      =  53.7240a 1804:n1      =  22.5621a 1806:n1      =  22.5600a
 +1807:n1      =  22.5621a 1808:n1      =  53.7240a 1810:n1      =  53.7240a
 +1811:n1      =  53.7240a 1812:n1      =  22.5621a 1814:n1      =  22.5600a
 +1815:n1      =  53.7240a 1816:n1      =  38.1466a 1818:n1      =  53.7240a
 +1819:n1      =  53.7240a 1820:n1      =  22.5621a 1822:n1      =  22.5600a
 +1823:n1      =  53.7240a 1824:n1      =  38.1466a 1826:n1      =  53.7240a
 +1827:n1      =  22.5621a 1828:n1      =  22.5675a 1830:n1      =  22.5600a
 +1831:n1      =  22.5621a 1832:n1      =  53.7240a 1834:n1      =  53.7240a
 +1835:n1      =  53.7240a 1836:n1      =  22.5621a 1838:n1      =  22.5600a
 +1839:n1      =  53.7240a 1840:n1      =  38.1466a 1842:n1      =  53.7240a
 +1843:n1      =  22.5621a 1844:n1      =  22.5675a 1846:n1      =  22.5600a
 +1847:n1      =  53.7240a 1848:n1      =  38.1466a 1850:n1      =  53.7240a
 +1851:n1      =  22.5621a 1852:n1      =  22.5675a 1854:n1      =  22.5600a
 +1855:n1      =  22.5621a 1856:n1      =  53.7240a 1858:n1      =  53.7240a
 +1859:n1      =  22.5621a 1860:n1      =  22.5675a 1862:n1      =  22.5600a
 +1863:n1      =  53.7240a 1864:n1      =  38.1466a 1866:n1      =  53.7240a
 +1867:n1      =  53.7240a 1868:n1      =  22.5621a 1870:n1      =  22.5600a
 +1871:n1      =  53.7240a 1872:n1      =  38.1466a 1874:n1      =  53.7240a
 +1875:n1      =  22.5621a 1876:n1      =  22.5675a 1878:n1      =  22.5600a
 +1879:n1      =  53.7240a 1880:n1      =  38.1466a 1882:n1      =  53.7240a
 +1883:n1      =  53.7240a 1884:n1      =  22.5621a 1886:n1      =  22.5600a
 +1887:n1      =  53.7240a 1888:n1      =  38.1466a 1890:n1      =  53.7240a
 +1891:n1      =  53.7240a 1892:n1      =  22.5621a 1894:n1      =  22.5600a
 +1895:n1      =  22.5621a 1896:n1      =  53.7240a 1898:n1      =  53.7240a
 +1899:n1      =  22.5621a 1900:n1      =  22.5675a 1902:n1      =  22.5600a
 +1903:n1      =  53.7240a 1904:n1      =  38.1466a 1906:n1      =  53.7240a
 +1907:n1      =  53.7240a 1908:n1      =  22.5621a 1910:n1      =  22.5600a
 +1911:n1      =  53.7240a 1912:n1      =  38.1466a 1914:n1      =  53.7240a
 +1915:n1      =  53.7240a 1916:n1      =  22.5621a 1918:n1      =  22.5600a
 +1919:n1      =  53.7240a 1920:n1      =  38.1466a 1922:n1      =  53.7240a
 +1923:n1      =  22.5621a 1924:n1      =  22.5675a 1926:n1      =  22.5600a
 +1927:n1      =  53.7240a 1928:n1      =  38.1466a 1930:n1      =  53.7240a
 +1931:n1      =  22.5621a 1932:n1      =  22.5675a 1934:n1      =  22.5600a
 +1935:n1      =  53.7240a 1936:n1      =  38.1466a 1938:n1      =  53.7240a
 +1939:n1      =  53.7240a 1940:n1      =  22.5621a 1942:n1      =  22.5600a
 +1943:n1      =  22.5621a 1944:n1      =  53.7240a 1946:n1      =  53.7240a
 +1947:n1      =  22.5621a 1948:n1      =  22.5675a 1950:n1      =  22.5600a
 +1951:n1      =  53.7240a 1952:n1      =  38.1466a 1954:n1      =  53.7240a
 +1955:n1      =  22.5621a 1956:n1      =  22.5675a 1958:n1      =  22.5600a
 +1959:n1      =  53.7240a 1960:n1      =  38.1466a 1962:n1      =  53.7240a
 +1963:n1      =  22.5621a 1964:n1      =  22.5675a 1966:n1      =  22.5600a
 +1967:n1      =  53.7240a 1968:n1      =  38.1466a 1970:n1      =  53.7240a
 +1971:n1      =  22.5621a 1972:n1      =  22.5675a 1974:n1      =  22.5600a
 +1975:n1      =  22.5621a 1976:n1      =  53.7240a 1978:n1      =  53.7240a
 +1979:n1      =  22.5621a 1980:n1      =  22.5675a 1982:n1      =  22.5600a
 +1983:n1      =  22.5621a 1984:n1      =  53.7240a 1986:n1      =  53.7240a
 +1987:n1      =  53.7240a 1988:n1      =  22.5621a 1990:n1      =  22.5600a
 +1991:n1      =  22.5621a 1992:n1      =  53.7240a 1994:n1      =  53.7240a
 +1995:n1      =  53.7240a 1996:n1      =  22.5621a 1998:n1      =  22.5600a
 +1999:n1      =  22.5621a 2000:n1      =  53.7240a 2002:n1      =  53.7240a
 +2003:n1      =  22.5621a 2004:n1      =  22.5675a 2006:n1      =  22.5600a
 +2007:n1      =  22.5621a 2008:n1      =  53.7240a 2010:n1      =  53.7240a
 +2011:n1      =  22.5621a 2012:n1      =  22.5675a 2014:n1      =  22.5600a
 +2015:n1      =  22.5621a 2016:n1      =  53.7240a 2018:n1      =  53.7240a
 +2019:n1      =  22.5621a 2020:n1      =  22.5675a 2022:n1      =  22.5600a
 +2023:n1      =  22.5621a 2024:n1      =  53.7240a 2026:n1      =  53.7240a
 +2027:n1      =  22.5621a 2028:n1      =  22.5675a 2030:n1      =  22.5600a
 +2031:n1      =  53.7240a 2032:n1      =  38.1466a 2034:n1      =  53.7240a
 +2035:n1      =  53.7240a 2036:n1      =  22.5621a 2038:n1      =  22.5600a
 +2039:n1      =  53.7240a 2040:n1      =  38.1466a 2042:n1      =  53.7240a
 +2043:n1      =  53.7240a 2044:n1      =  22.5621a 2046:n1      =  22.5600a
 +2047:n1      =  22.5621a 2048:n1      =  53.7240a 2050:n1      =  53.7240a
 +2051:n1      =  22.5621a 2052:n1      =  22.5675a 2054:n1      =  22.5600a
 +2055:n1      =  22.5621a 2056:n1      =  53.7240a 2058:n1      =  53.7240a
 +2059:n1      =  53.7240a 2060:n1      =  22.5621a 2062:n1      =  22.5600a
 +2063:n1      =  53.7240a 2064:n1      =  38.1466a 2066:n1      =  53.7240a
 +2067:n1      =  53.7240a 2068:n1      =  22.5621a 2070:n1      =  22.5600a
 +2071:n1      =  22.5621a 2072:n1      =  53.7240a 2074:n1      =  53.7240a
 +2075:n1      =  22.5621a 2076:n1      =  22.5675a 2078:n1      =  22.5600a
 +2079:n1      =  22.5621a 2080:n1      =  53.7240a 2082:n1      =  53.7240a
 +2083:n1      =  53.7240a 2084:n1      =  22.5621a 2086:n1      =  22.5600a
 +2087:n1      =  53.7240a 2088:n1      =  38.1466a 2090:n1      =  53.7240a
 +2091:n1      =  22.5621a 2092:n1      =  22.5675a 2094:n1      =  22.5600a
 +2095:n1      =  22.5621a 2096:n1      =  53.7240a 2098:n1      =  53.7240a
 +2099:n1      =  53.7240a 2100:n1      =  22.5621a 2102:n1      =  22.5600a
 +2103:n1      =  22.5621a 2104:n1      =  53.7240a 2106:n1      =  53.7240a
 +2107:n1      =  53.7240a 2108:n1      =  22.5621a 2110:n1      =  22.5600a
 +2111:n1      =  22.5621a 2112:n1      =  53.7240a 2114:n1      =  53.7240a
 +2115:n1      =  53.7240a 2116:n1      =  22.5621a 2118:n1      =  22.5600a
 +2119:n1      =  22.5621a 2120:n1      =  53.7240a 2122:n1      =  53.7240a
 +2123:n1      =  22.5621a 2124:n1      =  22.5675a 2126:n1      =  22.5600a
 +2127:n1      =  53.7240a 2128:n1      =  38.1466a 2130:n1      =  53.7240a
 +2131:n1      =  22.5621a 2132:n1      =  22.5675a 2134:n1      =  22.5600a
 +2135:n1      =  22.5621a 2136:n1      =  53.7240a 2138:n1      =  53.7240a
 +2139:n1      =  22.5621a 2140:n1      =  22.5675a 2142:n1      =  22.5600a
 +2143:n1      =  53.7240a 2144:n1      =  38.1466a 2146:n1      =  53.7240a
 +2147:n1      =  22.5621a 2148:n1      =  22.5675a 2150:n1      =  22.5600a
 +2151:n1      =  53.7240a 2152:n1      =  38.1466a 2154:n1      =  53.7240a
 +2155:n1      =  22.5621a 2156:n1      =  22.5675a 2158:n1      =  22.5600a
 +2159:n1      =  22.5621a 2160:n1      =  53.7240a 2162:n1      =  53.7240a
 +2163:n1      =  22.5621a 2164:n1      =  22.5675a 2166:n1      =  22.5600a
 +2167:n1      =  53.7240a 2168:n1      =  38.1466a 2170:n1      =  53.7240a
 +2171:n1      =  22.5621a 2172:n1      =  22.5675a 2174:n1      =  22.5600a
 +2175:n1      =  22.5621a 2176:n1      =  53.7240a 2178:n1      =  53.7240a
 +2179:n1      =  22.5621a 2180:n1      =  22.5675a 2182:n1      =  22.5600a
 +2183:n1      =  22.5621a 2184:n1      =  53.7240a 2186:n1      =  53.7240a
 +2187:n1      =  22.5621a 2188:n1      =  22.5675a 2190:n1      =  22.5600a
 +2191:n1      =  53.7240a 2192:n1      =  38.1466a 2194:n1      =  53.7240a
 +2195:n1      =  53.7240a 2196:n1      =  22.5621a 2198:n1      =  22.5600a
 +2199:n1      =  22.5621a 2200:n1      =  53.7240a 2202:n1      =  53.7240a
 +2203:n1      =  53.7240a 2204:n1      =  22.5621a 2206:n1      =  22.5600a
 +2207:n1      =  53.7240a 2208:n1      =  38.1466a 2210:n1      =  53.7240a
 +2211:n1      =  53.7240a 2212:n1      =  22.5621a 2214:n1      =  22.5600a
 +2215:n1      =  53.7240a 2216:n1      =  38.1466a 2218:n1      =  53.7240a
 +2219:n1      =  22.5621a 2220:n1      =  22.5675a 2222:n1      =  22.5600a
 +2223:n1      =  22.5621a 2224:n1      =  53.7240a 2226:n1      =  53.7240a
 +2227:n1      =  53.7240a 2228:n1      =  22.5621a 2230:n1      =  22.5600a
 +2231:n1      =  22.5621a 2232:n1      =  53.7240a 2234:n1      =  53.7240a
 +2235:n1      =  53.7240a 2236:n1      =  22.5621a 2238:n1      =  22.5600a
 +2239:n1      =  53.7240a 2240:n1      =  38.1466a 2242:n1      =  53.7240a
 +2243:n1      =  53.7240a 2244:n1      =  22.5621a 2246:n1      =  22.5600a
 +2247:n1      =  22.5621a 2248:n1      =  53.7240a 2250:n1      =  53.7240a
 +2251:n1      =  53.7240a 2252:n1      =  22.5621a 2254:n1      =  22.5600a
 +2255:n1      =  53.7240a 2256:n1      =  38.1466a 2258:n1      =  53.7240a
 +2259:n1      =  22.5621a 2260:n1      =  22.5675a 2262:n1      =  22.5600a
 +2263:n1      =  53.7240a 2264:n1      =  38.1466a 2266:n1      =  53.7240a
 +2267:n1      =  22.5621a 2268:n1      =  22.5675a 2270:n1      =  22.5600a
 +2271:n1      =  22.5621a 2272:n1      =  53.7240a 2274:n1      =  53.7240a
 +2275:n1      =  22.5621a 2276:n1      =  22.5675a 2278:n1      =  22.5600a
 +2279:n1      =  53.7240a 2280:n1      =  38.1466a 2282:n1      =  53.7240a
 +2283:n1      =  53.7240a 2284:n1      =  22.5621a 2286:n1      =  22.5600a
 +2287:n1      =  22.5621a 2288:n1      =  53.7240a 2290:n1      =  53.7240a
 +2291:n1      =  53.7240a 2292:n1      =  22.5621a 2294:n1      =  22.5600a
 +2295:n1      =  22.5621a 2296:n1      =  53.7240a 2298:n1      =  53.7240a
 +2299:n1      =  22.5621a 2300:n1      =  22.5675a 2302:n1      =  22.5600a
 +2303:n1      =  22.5621a 2304:n1      =  53.7240a 2306:n1      =  53.7240a
 +2307:n1      =  53.7240a 2308:n1      =  22.5621a 2310:n1      =  22.5600a
 +2311:n1      =  22.5621a 2312:n1      =  53.7240a 2314:n1      =  53.7240a
 +2315:n1      =  53.7240a 2316:n1      =  22.5621a 2318:n1      =  22.5600a
 +2319:n1      =  53.7240a 2320:n1      =  38.1466a 2322:n1      =  53.7240a
 +2323:n1      =  53.7240a 2324:n1      =  22.5621a 2326:n1      =  22.5600a
 +2327:n1      =  22.5621a 2328:n1      =  53.7240a 2330:n1      =  53.7240a
 +2331:n1      =  22.5621a 2332:n1      =  22.5675a 2334:n1      =  22.5600a
 +2335:n1      =  22.5621a 2336:n1      =  53.7240a 2338:n1      =  53.7240a
 +2339:n1      =  53.7240a 2340:n1      =  22.5621a 2342:n1      =  22.5600a
 +2343:n1      =  53.7240a 2344:n1      =  38.1466a 2346:n1      =  53.7240a
 +2347:n1      =  22.5621a 2348:n1      =  22.5675a 2350:n1      =  22.5600a
 +2351:n1      =  53.7240a 2352:n1      =  38.1466a 2354:n1      =  53.7240a
 +2355:n1      =  22.5621a 2356:n1      =  22.5675a 2358:n1      =  22.5600a
 +2359:n1      =  22.5621a 2360:n1      =  53.7240a 2362:n1      =  53.7240a
 +2363:n1      =  22.5621a 2364:n1      =  22.5675a 2366:n1      =  22.5600a
 +2367:n1      =  53.7240a 2368:n1      =  38.1466a 2370:n1      =  53.7240a
 +2371:n1      =  53.7240a 2372:n1      =  22.5621a 2374:n1      =  22.5600a
 +2375:n1      =  53.7240a 2376:n1      =  38.1466a 2378:n1      =  53.7240a
 +2379:n1      =  53.7240a 2380:n1      =  22.5621a 2382:n1      =  22.5600a
 +2383:n1      =  22.5621a 2384:n1      =  53.7240a 2386:n1      =  53.7240a
 +2387:n1      =  53.7240a 2388:n1      =  22.5621a 2390:n1      =  22.5600a
 +2391:n1      =  22.5621a 2392:n1      =  53.7240a 2394:n1      =  53.7240a
 +2395:n1      =  53.7240a 2396:n1      =  22.5621a 2398:n1      =  22.5600a
 +2399:n1      =  53.7240a 2400:n1      =  38.1466a 2402:n1      =  53.7240a
 +2403:n1      =  53.7240a 2404:n1      =  22.5621a 2406:n1      =  22.5600a
 +2407:n1      =  53.7240a 2408:n1      =  38.1466a 2410:n1      =  53.7240a
 +2411:n1      =  53.7240a 2412:n1      =  22.5621a 2414:n1      =  22.5600a
 +2415:n1      =  53.7240a 2416:n1      =  38.1466a 2418:n1      =  53.7240a
 +2419:n1      =  22.5621a 2420:n1      =  22.5675a 2422:n1      =  22.5600a
 +2423:n1      =  22.5621a 2424:n1      =  53.7240a 2426:n1      =  53.7240a
 +2427:n1      =  53.7240a 2428:n1      =  22.5621a 2430:n1      =  22.5600a
 +2431:n1      =  53.7240a 2432:n1      =  38.1466a 2434:n1      =  53.7240a
 +2435:n1      =  53.7240a 2436:n1      =  22.5621a 2438:n1      =  22.5600a
 +2439:n1      =  53.7240a 2440:n1      =  38.1466a 2442:n1      =  53.7240a
 +2443:n1      =  53.7240a 2444:n1      =  22.5621a 2446:n1      =  22.5600a
 +2447:n1      =  53.7240a 2448:n1      =  38.1466a 2450:n1      =  53.7240a
 +2451:n1      =  53.7240a 2452:n1      =  22.5621a 2454:n1      =  22.5600a
 +2455:n1      =  22.5621a 2456:n1      =  53.7240a 2458:n1      =  53.7240a
 +2459:n1      =  22.5621a 2460:n1      =  22.5675a 2462:n1      =  22.5600a
 +2463:n1      =  22.5621a 2464:n1      =  53.7240a 2466:n1      =  53.7240a
 +2467:n1      =  22.5621a 2468:n1      =  22.5675a 2470:n1      =  22.5600a
 +2471:n1      =  53.7240a 2472:n1      =  38.1466a 2474:n1      =  53.7240a
 +2475:n1      =  22.5621a 2476:n1      =  22.5675a 2478:n1      =  22.5600a
 +2479:n1      =  22.5621a 2480:n1      =  53.7240a 2482:n1      =  53.7240a
 +2483:n1      =  53.7240a 2484:n1      =  22.5621a 2486:n1      =  22.5600a
 +2487:n1      =  22.5621a 2488:n1      =  53.7240a 2490:n1      =  53.7240a
 +2491:n1      =  53.7240a 2492:n1      =  22.5621a 2494:n1      =  22.5600a
 +2495:n1      =  53.7240a 2496:n1      =  38.1466a 2498:n1      =  53.7240a
 +2499:n1      =  22.5621a 2500:n1      =  22.5675a 2502:n1      =  22.5600a
 +2503:n1      =  53.7240a 2504:n1      =  38.1466a 2506:n1      =  53.7240a
 +2507:n1      =  53.7240a 2508:n1      =  22.5621a 2510:n1      =  22.5600a
 +2511:n1      =  53.7240a 2512:n1      =  38.1466a 2514:n1      =  53.7240a
 +2515:n1      =  53.7240a 2516:n1      =  22.5621a 2518:n1      =  22.5600a
 +2519:n1      =  53.7240a 2520:n1      =  38.1466a 2522:n1      =  53.7240a
 +2523:n1      =  53.7240a 2524:n1      =  22.5621a 2526:n1      =  22.5600a
 +2527:n1      =  53.7240a 2528:n1      =  38.1466a 2530:n1      =  53.7240a
 +2531:n1      =  22.5621a 2532:n1      =  22.5675a 2534:n1      =  22.5600a
 +2535:n1      =  53.7240a 2536:n1      =  38.1466a 2538:n1      =  53.7240a
 +2539:n1      =  22.5621a 2540:n1      =  22.5675a 2542:n1      =  22.5600a
 +2543:n1      =  22.5621a 2544:n1      =  53.7240a 2546:n1      =  53.7240a
 +2547:n1      =  22.5621a 2548:n1      =  22.5675a 2550:n1      =  22.5600a
 +2551:n1      =  22.5621a 2552:n1      =  53.7240a 2554:n1      =  53.7240a
 +2555:n1      =  22.5621a 2556:n1      =  22.5675a 2558:n1      =  22.5600a
 +2559:n1      =  53.7240a 2560:n1      =  38.1466a

 
 ******
 .title dic_final

 ****** transient analysis tnom=  25.000 temp=  25.000 ******
 pwr= 665.4774512u  from=   0.             to=  20.0000000n

          ***** job concluded
 ******  
 .title dic_final

 ****** job statistics summary tnom=  25.000 temp=  25.000 ******
  
 ******  Machine Information  ******
 CPU:
 model name	: AMD EPYC 7713 64-Core Processor
 cpu MHz	: 1500.000
  
 OS:
 Linux version 3.10.0-1160.88.1.el7.x86_64 (mockbuild@kbuilder.bsys.centos.org) (gcc version 4.8.5 20150623 (Red Hat 4.8.5-44) (GCC) ) #1 SMP Tue Mar 7 15:41:52 UTC 2023


  ******  HSPICE Threads Information  ******

  Command Line Threads Count :     1
  Available CPU Count        :   256
  Actual Threads Count       :     1


  ******  Circuit Statistics  ******
  # nodes       =    4629 # elements   =    9748
  # resistors   =       0 # capacitors =       0 # inductors   =       0
  # mutual_inds =       0 # vccs       =       0 # vcvs        =       0
  # cccs        =       0 # ccvs       =       0 # volt_srcs   =       4
  # curr_srcs   =       0 # diodes     =       0 # bjts        =       0
  # jfets       =       0 # mosfets    =    9216 # U elements  =       0
  # T elements  =       0 # W elements =       0 # B elements  =       0
  # S elements  =       0 # P elements =       0 # va device   =       0
  # vector_srcs =     528 # N elements =       0


  ******  Runtime Statistics (seconds)  ******

  analysis           time    # points   tot. iter  conv.iter
  op point           1.31           1          26
  transient        107.36       20001        7804        1717 rev=       525
  readin             0.21
  errchk             0.33
  setup              0.07
  output             0.00


           peak memory used        506.05 megabytes
           total cpu time          109.18 seconds
           total elapsed time      109.35 seconds
           job started at     22:00:58 12/19/2024
           job ended   at     22:02:47 12/19/2024
           job total runtime       109.35 seconds


 lic: Release hspice token(s) 
 lic: total license checkout elapse time:        0.16(s)
