 ****** HSPICE -- Q-2020.03-SP2-2 linux64 (Nov  1 2020) ******                  
  Copyright (c) 1986 - 2024 by Synopsys, Inc. All Rights Reserved.              
  This software and the associated documentation are proprietary
  to Synopsys, Inc. This software may only be used in accordance
  with the terms and conditions of a written license agreement with
  Synopsys, Inc. All other use, reproduction, or distribution of
  this software is strictly prohibited.
  Input File: test.sp                                                           
  Command line options: /RAID2/cad/synopsys/hspice/2020.03-sp2-2/hspice/linux64/hspice test.sp -o test.lis
  Start time: Sat Dec 28 19:21:14 2024
 lic:  
 lic: FLEXlm: SDK_12.6 
 lic: USER:   icst_dic112          HOSTNAME: ee25 
 lic: HOSTID: "d85ed3efc15f"       PID:      246504 
 lic: Using FLEXlm license file: 
 lic: 26585@lshc 
 lic: Checkout 1 hspice 
 lic: License/Maintenance for hspice will expire on 14-may-2025/2024.09 
 lic: 295(in_use)/1100(total) FLOATING license(s) on SERVER 26585@lshc 
 lic:   
  **warning** (test.sp:1496) Global net name "bl" in subckt pin list. The pin will be connected to the local net. Recommend to not use global net names in subckt pin lists.
  **warning** node clk can't be found, so its signal will be ignored
 **info** set option symb=1 internally to help for convergence.
 *****************************************************************
 ******  option summary
 ******
 runlvl  = 3         bypass  = 2.0000    
  Opening plot unit= 15
 file=test.pa0

1****** HSPICE -- Q-2020.03-SP2-2 linux64 (Nov  1 2020) ******                  
 ******  
 .title dic_final

 ****** operating point information tnom=  25.000 temp=  25.000 ******
 ****** operating point status is voltage   simulation time is     0.     
       node    =voltage         node    =voltage         node    =voltage

 +   0:bl      = 700.0000m    0:blb     = 700.0000m    0:i110_buf=  16.7986m
 +   0:i110_inv=   1.0749u    0:i111_buf=  16.7986m    0:i111_inv=   1.0768u
 +   0:i112_buf=  16.7986m    0:i112_inv=   1.0787u    0:i113_buf=  16.7986m
 +   0:i113_inv=   1.0729u    0:i114_buf=  16.7986m    0:i114_inv=   1.0749u
 +   0:i115_buf=  16.7986m    0:i115_inv=   1.0710u    0:i116_buf=  16.7986m
 +   0:i116_inv=   1.0729u    0:i117_buf=  16.7986m    0:i117_inv=   1.0749u
 +   0:i118_buf=  16.7986m    0:i118_inv=   1.0768u    0:i119_buf=  16.7986m
 +   0:i119_inv=   1.0787u    0:i11_buf =  16.7986m    0:i11_inv =   1.0787u
 +   0:i120_buf=  16.7986m    0:i120_inv=   1.0729u    0:i121_buf=  16.7986m
 +   0:i121_inv=   1.0787u    0:i122_buf=  16.7986m    0:i122_inv=   1.0749u
 +   0:i123_buf=  16.7986m    0:i123_inv=   1.0768u    0:i124_buf=  16.7986m
 +   0:i124_inv=   1.0749u    0:i125_buf=  16.7986m    0:i125_inv=   1.0787u
 +   0:i126_buf=  16.7986m    0:i126_inv=   1.0749u    0:i127_buf=  16.7986m
 +   0:i127_inv=   1.0768u    0:i128_buf=  16.7986m    0:i128_inv=   1.0749u
 +   0:i129_buf=  16.7986m    0:i129_inv=   1.0749u    0:i12_buf =  16.7986m
 +   0:i12_inv =   1.0787u    0:i130_buf=  16.7986m    0:i130_inv=   1.0729u
 +   0:i131_buf=  16.7986m    0:i131_inv=   1.0768u    0:i132_buf=  16.7986m
 +   0:i132_inv=   1.0768u    0:i13_buf =  16.7986m    0:i13_inv =   1.0710u
 +   0:i14_buf =  16.7986m    0:i14_inv =   1.0749u    0:i15_buf =  16.7986m
 +   0:i15_inv =   1.0729u    0:i16_buf =  16.7986m    0:i16_inv =   1.0729u
 +   0:i17_buf =  16.7986m    0:i17_inv =   1.0768u    0:i18_buf =  16.7986m
 +   0:i18_inv =   1.0749u    0:i19_buf =  16.7986m    0:i19_inv =   1.0768u
 +   0:i210_buf=  16.7986m    0:i210_inv=   1.0710u    0:i211_buf=  16.7986m
 +   0:i211_inv=   1.0729u    0:i212_buf=  16.7986m    0:i212_inv=   1.0710u
 +   0:i213_buf=  16.7986m    0:i213_inv=   1.0749u    0:i214_buf=  16.7986m
 +   0:i214_inv=   1.0729u    0:i215_buf=  16.7986m    0:i215_inv=   1.0749u
 +   0:i216_buf=  16.7986m    0:i216_inv=   1.0749u    0:i217_buf=  16.7986m
 +   0:i217_inv=   1.0749u    0:i218_buf=  16.7986m    0:i218_inv=   1.0729u
 +   0:i219_buf=  16.7986m    0:i219_inv=   1.0768u    0:i21_buf =  16.7986m
 +   0:i21_inv =   1.0768u    0:i220_buf=  16.7986m    0:i220_inv=   1.0768u
 +   0:i221_buf=  16.7986m    0:i221_inv=   1.0749u    0:i222_buf=  16.7986m
 +   0:i222_inv=   1.0710u    0:i223_buf=  16.7986m    0:i223_inv=   1.0749u
 +   0:i224_buf=  16.7986m    0:i224_inv=   1.0749u    0:i225_buf=  16.7986m
 +   0:i225_inv=   1.0729u    0:i226_buf=  16.7986m    0:i226_inv=   1.0768u
 +   0:i227_buf=  16.7986m    0:i227_inv=   1.0768u    0:i228_buf=  16.7986m
 +   0:i228_inv=   1.0729u    0:i229_buf=  16.7986m    0:i229_inv=   1.0729u
 +   0:i22_buf =  16.7986m    0:i22_inv =   1.0729u    0:i230_buf=  16.7986m
 +   0:i230_inv=   1.0749u    0:i231_buf=  16.7986m    0:i231_inv=   1.0749u
 +   0:i232_buf=  16.7986m    0:i232_inv=   1.0749u    0:i23_buf =  16.7986m
 +   0:i23_inv =   1.0729u    0:i24_buf =  16.7986m    0:i24_inv =   1.0729u
 +   0:i25_buf =  16.7986m    0:i25_inv =   1.0749u    0:i26_buf =  16.7986m
 +   0:i26_inv =   1.0729u    0:i27_buf =  16.7986m    0:i27_inv =   1.0729u
 +   0:i28_buf =  16.7986m    0:i28_inv =   1.0749u    0:i29_buf =  16.7986m
 +   0:i29_inv =   1.0749u    0:i310_buf=  16.7986m    0:i310_inv=   1.0768u
 +   0:i311_buf=  16.7986m    0:i311_inv=   1.0749u    0:i312_buf=  16.7986m
 +   0:i312_inv=   1.0749u    0:i313_buf=  16.7986m    0:i313_inv=   1.0768u
 +   0:i314_buf=  16.7986m    0:i314_inv=   1.0710u    0:i315_buf=  16.7986m
 +   0:i315_inv=   1.0749u    0:i316_buf=  16.7986m    0:i316_inv=   1.0710u
 +   0:i317_buf=  16.7986m    0:i317_inv=   1.0787u    0:i318_buf=  16.7986m
 +   0:i318_inv=   1.0749u    0:i319_buf=  16.7986m    0:i319_inv=   1.0729u
 +   0:i31_buf =  16.7986m    0:i31_inv =   1.0749u    0:i320_buf=  16.7986m
 +   0:i320_inv=   1.0768u    0:i321_buf=  16.7986m    0:i321_inv=   1.0768u
 +   0:i322_buf=  16.7986m    0:i322_inv=   1.0749u    0:i323_buf=  16.7986m
 +   0:i323_inv=   1.0729u    0:i324_buf=  16.7986m    0:i324_inv=   1.0768u
 +   0:i325_buf=  16.7986m    0:i325_inv=   1.0768u    0:i326_buf=  16.7986m
 +   0:i326_inv=   1.0768u    0:i327_buf=  16.7986m    0:i327_inv=   1.0768u
 +   0:i328_buf=  16.7986m    0:i328_inv=   1.0729u    0:i329_buf=  16.7986m
 +   0:i329_inv=   1.0710u    0:i32_buf =  16.7986m    0:i32_inv =   1.0749u
 +   0:i330_buf=  16.7986m    0:i330_inv=   1.0729u    0:i331_buf=  16.7986m
 +   0:i331_inv=   1.0749u    0:i332_buf=  16.7986m    0:i332_inv=   1.0749u
 +   0:i33_buf =  16.7986m    0:i33_inv =   1.0729u    0:i34_buf =  16.7986m
 +   0:i34_inv =   1.0749u    0:i35_buf =  16.7986m    0:i35_inv =   1.0749u
 +   0:i36_buf =  16.7986m    0:i36_inv =   1.0749u    0:i37_buf =  16.7986m
 +   0:i37_inv =   1.0729u    0:i38_buf =  16.7986m    0:i38_inv =   1.0710u
 +   0:i39_buf =  16.7986m    0:i39_inv =   1.0787u    0:i410_buf=  16.7986m
 +   0:i410_inv=   1.0729u    0:i411_buf=  16.7986m    0:i411_inv=   1.0768u
 +   0:i412_buf=  16.7986m    0:i412_inv=   1.0749u    0:i413_buf=  16.7986m
 +   0:i413_inv=   1.0749u    0:i414_buf=  16.7986m    0:i414_inv=   1.0749u
 +   0:i415_buf=  16.7986m    0:i415_inv=   1.0749u    0:i416_buf=  16.7986m
 +   0:i416_inv=   1.0749u    0:i417_buf=  16.7986m    0:i417_inv=   1.0768u
 +   0:i418_buf=  16.7986m    0:i418_inv=   1.0729u    0:i419_buf=  16.7986m
 +   0:i419_inv=   1.0729u    0:i41_buf =  16.7986m    0:i41_inv =   1.0749u
 +   0:i420_buf=  16.7986m    0:i420_inv=   1.0710u    0:i421_buf=  16.7986m
 +   0:i421_inv=   1.0710u    0:i422_buf=  16.7986m    0:i422_inv=   1.0749u
 +   0:i423_buf=  16.7986m    0:i423_inv=   1.0729u    0:i424_buf=  16.7986m
 +   0:i424_inv=   1.0729u    0:i425_buf=  16.7986m    0:i425_inv=   1.0729u
 +   0:i426_buf=  16.7986m    0:i426_inv=   1.0768u    0:i427_buf=  16.7986m
 +   0:i427_inv=   1.0749u    0:i428_buf=  16.7986m    0:i428_inv=   1.0768u
 +   0:i429_buf=  16.7986m    0:i429_inv=   1.0749u    0:i42_buf =  16.7986m
 +   0:i42_inv =   1.0768u    0:i430_buf=  16.7986m    0:i430_inv=   1.0749u
 +   0:i431_buf=  16.7986m    0:i431_inv=   1.0768u    0:i432_buf=  16.7986m
 +   0:i432_inv=   1.0768u    0:i43_buf =  16.7986m    0:i43_inv =   1.0729u
 +   0:i44_buf =  16.7986m    0:i44_inv =   1.0749u    0:i45_buf =  16.7986m
 +   0:i45_inv =   1.0749u    0:i46_buf =  16.7986m    0:i46_inv =   1.0729u
 +   0:i47_buf =  16.7986m    0:i47_inv =   1.0729u    0:i48_buf =  16.7986m
 +   0:i48_inv =   1.0710u    0:i49_buf =  16.7986m    0:i49_inv =   1.0787u
 +   0:inm[0]  = 418.1647m    0:inm[100]= 418.1647m    0:inm[101]= 418.1647m
 +   0:inm[102]= 418.1647m    0:inm[103]= 418.1647m    0:inm[104]= 418.1647m
 +   0:inm[105]= 418.1647m    0:inm[106]= 418.1647m    0:inm[107]= 418.1647m
 +   0:inm[108]= 418.1647m    0:inm[109]= 418.1647m    0:inm[10] = 418.1647m
 +   0:inm[110]= 418.1647m    0:inm[111]= 418.1647m    0:inm[112]= 418.1647m
 +   0:inm[113]= 418.1647m    0:inm[114]= 418.1647m    0:inm[115]= 418.1647m
 +   0:inm[116]= 418.1647m    0:inm[117]= 418.1647m    0:inm[118]= 418.1647m
 +   0:inm[119]= 418.1647m    0:inm[11] = 418.1647m    0:inm[120]= 418.1647m
 +   0:inm[121]= 418.1647m    0:inm[122]= 418.1647m    0:inm[123]= 418.1647m
 +   0:inm[124]= 418.1647m    0:inm[125]= 418.1647m    0:inm[126]= 418.1647m
 +   0:inm[127]= 418.1647m    0:inm[12] = 418.1647m    0:inm[13] = 418.1647m
 +   0:inm[14] = 418.1647m    0:inm[15] = 418.1647m    0:inm[16] = 418.1647m
 +   0:inm[17] = 418.1647m    0:inm[18] = 418.1647m    0:inm[19] = 418.1647m
 +   0:inm[1]  = 418.1647m    0:inm[20] = 418.1647m    0:inm[21] = 418.1647m
 +   0:inm[22] = 418.1647m    0:inm[23] = 418.1647m    0:inm[24] = 418.1647m
 +   0:inm[25] = 418.1647m    0:inm[26] = 418.1647m    0:inm[27] = 418.1647m
 +   0:inm[28] = 418.1647m    0:inm[29] = 418.1647m    0:inm[2]  = 418.1647m
 +   0:inm[30] = 418.1647m    0:inm[31] = 418.1647m    0:inm[32] = 418.1647m
 +   0:inm[33] = 418.1647m    0:inm[34] = 418.1647m    0:inm[35] = 418.1647m
 +   0:inm[36] = 418.1647m    0:inm[37] = 418.1647m    0:inm[38] = 418.1647m
 +   0:inm[39] = 418.1647m    0:inm[3]  = 418.1647m    0:inm[40] = 418.1647m
 +   0:inm[41] = 418.1647m    0:inm[42] = 418.1647m    0:inm[43] = 418.1647m
 +   0:inm[44] = 418.1647m    0:inm[45] = 418.1647m    0:inm[46] = 418.1647m
 +   0:inm[47] = 418.1647m    0:inm[48] = 418.1647m    0:inm[49] = 418.1647m
 +   0:inm[4]  = 418.1647m    0:inm[50] = 418.1647m    0:inm[51] = 418.1647m
 +   0:inm[52] = 418.1647m    0:inm[53] = 418.1647m    0:inm[54] = 418.1647m
 +   0:inm[55] = 418.1647m    0:inm[56] = 418.1647m    0:inm[57] = 418.1647m
 +   0:inm[58] = 418.1647m    0:inm[59] = 418.1647m    0:inm[5]  = 418.1647m
 +   0:inm[60] = 418.1647m    0:inm[61] = 418.1647m    0:inm[62] = 418.1647m
 +   0:inm[63] = 418.1647m    0:inm[64] = 418.1647m    0:inm[65] = 418.1647m
 +   0:inm[66] = 418.1647m    0:inm[67] = 418.1647m    0:inm[68] = 418.1647m
 +   0:inm[69] = 418.1647m    0:inm[6]  = 418.1647m    0:inm[70] = 418.1647m
 +   0:inm[71] = 418.1647m    0:inm[72] = 418.1647m    0:inm[73] = 418.1647m
 +   0:inm[74] = 418.1647m    0:inm[75] = 418.1647m    0:inm[76] = 418.1647m
 +   0:inm[77] = 418.1647m    0:inm[78] = 418.1647m    0:inm[79] = 418.1647m
 +   0:inm[7]  = 418.1647m    0:inm[80] = 418.1647m    0:inm[81] = 418.1647m
 +   0:inm[82] = 418.1647m    0:inm[83] = 418.1647m    0:inm[84] = 418.1647m
 +   0:inm[85] = 418.1647m    0:inm[86] = 418.1647m    0:inm[87] = 418.1647m
 +   0:inm[88] = 418.1647m    0:inm[89] = 418.1647m    0:inm[8]  = 418.1647m
 +   0:inm[90] = 418.1647m    0:inm[91] = 418.1647m    0:inm[92] = 418.1647m
 +   0:inm[93] = 418.1647m    0:inm[94] = 418.1647m    0:inm[95] = 418.1647m
 +   0:inm[96] = 418.1647m    0:inm[97] = 418.1647m    0:inm[98] = 418.1647m
 +   0:inm[99] = 418.1647m    0:inm[9]  = 418.1647m    0:o_1_10_1= 699.9938m
 +   0:o_1_10_2=  14.2198n    0:o_1_10_3=  14.2198n    0:o_1_10_4= 699.9938m
 +   0:o_1_11_1= 699.9938m    0:o_1_11_2= 699.9938m    0:o_1_11_3=  14.2198n
 +   0:o_1_11_4= 699.9938m    0:o_1_12_1= 699.9938m    0:o_1_12_2= 699.9938m
 +   0:o_1_12_3= 699.9938m    0:o_1_12_4= 699.9938m    0:o_1_13_1= 699.9938m
 +   0:o_1_13_2=  14.2198n    0:o_1_13_3=  14.2198n    0:o_1_13_4=  14.2198n
 +   0:o_1_14_1= 699.9938m    0:o_1_14_2=  14.2198n    0:o_1_14_3=  14.2198n
 +   0:o_1_14_4= 699.9938m    0:o_1_15_1=  14.2198n    0:o_1_15_2=  14.2198n
 +   0:o_1_15_3=  14.2198n    0:o_1_15_4=  14.2198n    0:o_1_16_1= 699.9938m
 +   0:o_1_16_2=  14.2198n    0:o_1_16_3=  14.2198n    0:o_1_16_4=  14.2198n
 +   0:o_1_17_1= 699.9938m    0:o_1_17_2=  14.2198n    0:o_1_17_3=  14.2198n
 +   0:o_1_17_4= 699.9938m    0:o_1_18_1= 699.9938m    0:o_1_18_2= 699.9938m
 +   0:o_1_18_3= 699.9938m    0:o_1_18_4=  14.2198n    0:o_1_19_1= 699.9938m
 +   0:o_1_19_2= 699.9938m    0:o_1_19_3= 699.9938m    0:o_1_19_4= 699.9938m
 +   0:o_1_1_1 = 699.9938m    0:o_1_1_2 = 699.9938m    0:o_1_1_3 = 699.9938m
 +   0:o_1_1_4 = 699.9938m    0:o_1_20_1=  14.2198n    0:o_1_20_2=  14.2198n
 +   0:o_1_20_3= 699.9938m    0:o_1_20_4=  14.2198n    0:o_1_21_1= 699.9938m
 +   0:o_1_21_2= 699.9938m    0:o_1_21_3= 699.9938m    0:o_1_21_4= 699.9938m
 +   0:o_1_22_1=  14.2198n    0:o_1_22_2= 699.9938m    0:o_1_22_3= 699.9938m
 +   0:o_1_22_4=  14.2198n    0:o_1_23_1= 699.9938m    0:o_1_23_2=  14.2198n
 +   0:o_1_23_3= 699.9938m    0:o_1_23_4= 699.9938m    0:o_1_24_1=  14.2198n
 +   0:o_1_24_2= 699.9938m    0:o_1_24_3=  14.2198n    0:o_1_24_4= 699.9938m
 +   0:o_1_25_1= 699.9938m    0:o_1_25_2= 699.9938m    0:o_1_25_3= 699.9938m
 +   0:o_1_25_4= 699.9938m    0:o_1_26_1= 699.9938m    0:o_1_26_2=  14.2198n
 +   0:o_1_26_3= 699.9938m    0:o_1_26_4=  14.2198n    0:o_1_27_1= 699.9938m
 +   0:o_1_27_2= 699.9938m    0:o_1_27_3= 699.9938m    0:o_1_27_4=  14.2198n
 +   0:o_1_28_1=  14.2198n    0:o_1_28_2=  14.2198n    0:o_1_28_3= 699.9938m
 +   0:o_1_28_4= 699.9938m    0:o_1_29_1=  14.2198n    0:o_1_29_2= 699.9938m
 +   0:o_1_29_3= 699.9938m    0:o_1_29_4=  14.2198n    0:o_1_2_1 = 699.9938m
 +   0:o_1_2_2 = 699.9938m    0:o_1_2_3 = 699.9938m    0:o_1_2_4 = 699.9938m
 +   0:o_1_30_1=  14.2198n    0:o_1_30_2=  14.2198n    0:o_1_30_3= 699.9938m
 +   0:o_1_30_4=  14.2198n    0:o_1_31_1= 699.9938m    0:o_1_31_2= 699.9938m
 +   0:o_1_31_3= 699.9938m    0:o_1_31_4=  14.2198n    0:o_1_32_1=  14.2198n
 +   0:o_1_32_2= 699.9938m    0:o_1_32_3= 699.9938m    0:o_1_32_4= 699.9938m
 +   0:o_1_3_1 =  14.2198n    0:o_1_3_2 =  14.2198n    0:o_1_3_3 =  14.2198n
 +   0:o_1_3_4 =  14.2198n    0:o_1_4_1 =  14.2198n    0:o_1_4_2 = 699.9938m
 +   0:o_1_4_3 =  14.2198n    0:o_1_4_4 = 699.9938m    0:o_1_5_1 =  14.2198n
 +   0:o_1_5_2 =  14.2198n    0:o_1_5_3 = 699.9938m    0:o_1_5_4 =  14.2198n
 +   0:o_1_6_1 =  14.2198n    0:o_1_6_2 =  14.2198n    0:o_1_6_3 = 699.9938m
 +   0:o_1_6_4 =  14.2198n    0:o_1_7_1 =  14.2198n    0:o_1_7_2 = 699.9938m
 +   0:o_1_7_3 = 699.9938m    0:o_1_7_4 = 699.9938m    0:o_1_8_1 = 699.9938m
 +   0:o_1_8_2 = 699.9938m    0:o_1_8_3 =  14.2198n    0:o_1_8_4 =  14.2198n
 +   0:o_1_9_1 = 699.9938m    0:o_1_9_2 = 699.9938m    0:o_1_9_3 =  14.2198n
 +   0:o_1_9_4 = 699.9938m    0:o_2_10_1=  14.2198n    0:o_2_10_2=  14.2198n
 +   0:o_2_10_3=  14.2198n    0:o_2_10_4=  14.2198n    0:o_2_11_1=  14.2198n
 +   0:o_2_11_2=  14.2198n    0:o_2_11_3= 699.9938m    0:o_2_11_4=  14.2198n
 +   0:o_2_12_1=  14.2198n    0:o_2_12_2=  14.2198n    0:o_2_12_3=  14.2198n
 +   0:o_2_12_4=  14.2198n    0:o_2_13_1=  14.2198n    0:o_2_13_2=  14.2198n
 +   0:o_2_13_3= 699.9938m    0:o_2_13_4= 699.9938m    0:o_2_14_1=  14.2198n
 +   0:o_2_14_2=  14.2198n    0:o_2_14_3= 699.9938m    0:o_2_14_4=  14.2198n
 +   0:o_2_15_1=  14.2198n    0:o_2_15_2=  14.2198n    0:o_2_15_3= 699.9938m
 +   0:o_2_15_4= 699.9938m    0:o_2_16_1=  14.2198n    0:o_2_16_2= 699.9938m
 +   0:o_2_16_3=  14.2198n    0:o_2_16_4= 699.9938m    0:o_2_17_1=  14.2198n
 +   0:o_2_17_2= 699.9938m    0:o_2_17_3= 699.9938m    0:o_2_17_4=  14.2198n
 +   0:o_2_18_1=  14.2198n    0:o_2_18_2= 699.9938m    0:o_2_18_3=  14.2198n
 +   0:o_2_18_4=  14.2198n    0:o_2_19_1= 699.9938m    0:o_2_19_2= 699.9938m
 +   0:o_2_19_3=  14.2198n    0:o_2_19_4= 699.9938m    0:o_2_1_1 = 699.9938m
 +   0:o_2_1_2 =  14.2198n    0:o_2_1_3 = 699.9938m    0:o_2_1_4 = 699.9938m
 +   0:o_2_20_1= 699.9938m    0:o_2_20_2= 699.9938m    0:o_2_20_3=  14.2198n
 +   0:o_2_20_4= 699.9938m    0:o_2_21_1=  14.2198n    0:o_2_21_2= 699.9938m
 +   0:o_2_21_3=  14.2198n    0:o_2_21_4= 699.9938m    0:o_2_22_1=  14.2198n
 +   0:o_2_22_2=  14.2198n    0:o_2_22_3=  14.2198n    0:o_2_22_4=  14.2198n
 +   0:o_2_23_1=  14.2198n    0:o_2_23_2= 699.9938m    0:o_2_23_3= 699.9938m
 +   0:o_2_23_4=  14.2198n    0:o_2_24_1=  14.2198n    0:o_2_24_2=  14.2198n
 +   0:o_2_24_3= 699.9938m    0:o_2_24_4= 699.9938m    0:o_2_25_1= 699.9938m
 +   0:o_2_25_2=  14.2198n    0:o_2_25_3=  14.2198n    0:o_2_25_4=  14.2198n
 +   0:o_2_26_1= 699.9938m    0:o_2_26_2=  14.2198n    0:o_2_26_3= 699.9938m
 +   0:o_2_26_4= 699.9938m    0:o_2_27_1= 699.9938m    0:o_2_27_2= 699.9938m
 +   0:o_2_27_3=  14.2198n    0:o_2_27_4= 699.9938m    0:o_2_28_1=  14.2198n
 +   0:o_2_28_2=  14.2198n    0:o_2_28_3=  14.2198n    0:o_2_28_4= 699.9938m
 +   0:o_2_29_1=  14.2198n    0:o_2_29_2= 699.9938m    0:o_2_29_3=  14.2198n
 +   0:o_2_29_4=  14.2198n    0:o_2_2_1 = 699.9938m    0:o_2_2_2 =  14.2198n
 +   0:o_2_2_3 =  14.2198n    0:o_2_2_4 =  14.2198n    0:o_2_30_1= 699.9938m
 +   0:o_2_30_2=  14.2198n    0:o_2_30_3= 699.9938m    0:o_2_30_4=  14.2198n
 +   0:o_2_31_1= 699.9938m    0:o_2_31_2=  14.2198n    0:o_2_31_3= 699.9938m
 +   0:o_2_31_4=  14.2198n    0:o_2_32_1=  14.2198n    0:o_2_32_2= 699.9938m
 +   0:o_2_32_3=  14.2198n    0:o_2_32_4= 699.9938m    0:o_2_3_1 =  14.2198n
 +   0:o_2_3_2 =  14.2198n    0:o_2_3_3 = 699.9938m    0:o_2_3_4 =  14.2198n
 +   0:o_2_4_1 =  14.2198n    0:o_2_4_2 =  14.2198n    0:o_2_4_3 =  14.2198n
 +   0:o_2_4_4 = 699.9938m    0:o_2_5_1 =  14.2198n    0:o_2_5_2 = 699.9938m
 +   0:o_2_5_3 =  14.2198n    0:o_2_5_4 = 699.9938m    0:o_2_6_1 =  14.2198n
 +   0:o_2_6_2 =  14.2198n    0:o_2_6_3 =  14.2198n    0:o_2_6_4 = 699.9938m
 +   0:o_2_7_1 = 699.9938m    0:o_2_7_2 =  14.2198n    0:o_2_7_3 =  14.2198n
 +   0:o_2_7_4 =  14.2198n    0:o_2_8_1 = 699.9938m    0:o_2_8_2 =  14.2198n
 +   0:o_2_8_3 =  14.2198n    0:o_2_8_4 = 699.9938m    0:o_2_9_1 =  14.2198n
 +   0:o_2_9_2 = 699.9938m    0:o_2_9_3 =  14.2198n    0:o_2_9_4 = 699.9938m
 +   0:o_3_10_1= 699.9938m    0:o_3_10_2=  14.2198n    0:o_3_10_3= 699.9938m
 +   0:o_3_10_4= 699.9938m    0:o_3_11_1=  14.2198n    0:o_3_11_2=  14.2198n
 +   0:o_3_11_3= 699.9938m    0:o_3_11_4= 699.9938m    0:o_3_12_1= 699.9938m
 +   0:o_3_12_2= 699.9938m    0:o_3_12_3=  14.2198n    0:o_3_12_4=  14.2198n
 +   0:o_3_13_1= 699.9938m    0:o_3_13_2= 699.9938m    0:o_3_13_3= 699.9938m
 +   0:o_3_13_4=  14.2198n    0:o_3_14_1=  14.2198n    0:o_3_14_2=  14.2198n
 +   0:o_3_14_3=  14.2198n    0:o_3_14_4=  14.2198n    0:o_3_15_1=  14.2198n
 +   0:o_3_15_2= 699.9938m    0:o_3_15_3= 699.9938m    0:o_3_15_4=  14.2198n
 +   0:o_3_16_1=  14.2198n    0:o_3_16_2=  14.2198n    0:o_3_16_3=  14.2198n
 +   0:o_3_16_4=  14.2198n    0:o_3_17_1= 699.9938m    0:o_3_17_2= 699.9938m
 +   0:o_3_17_3= 699.9938m    0:o_3_17_4= 699.9938m    0:o_3_18_1= 699.9938m
 +   0:o_3_18_2=  14.2198n    0:o_3_18_3=  14.2198n    0:o_3_18_4= 699.9938m
 +   0:o_3_19_1= 699.9938m    0:o_3_19_2=  14.2198n    0:o_3_19_3=  14.2198n
 +   0:o_3_19_4=  14.2198n    0:o_3_1_1 = 699.9938m    0:o_3_1_2 =  14.2198n
 +   0:o_3_1_3 =  14.2198n    0:o_3_1_4 = 699.9938m    0:o_3_20_1= 699.9938m
 +   0:o_3_20_2= 699.9938m    0:o_3_20_3=  14.2198n    0:o_3_20_4= 699.9938m
 +   0:o_3_21_1= 699.9938m    0:o_3_21_2= 699.9938m    0:o_3_21_3= 699.9938m
 +   0:o_3_21_4=  14.2198n    0:o_3_22_1=  14.2198n    0:o_3_22_2= 699.9938m
 +   0:o_3_22_3=  14.2198n    0:o_3_22_4= 699.9938m    0:o_3_23_1=  14.2198n
 +   0:o_3_23_2=  14.2198n    0:o_3_23_3=  14.2198n    0:o_3_23_4= 699.9938m
 +   0:o_3_24_1= 699.9938m    0:o_3_24_2= 699.9938m    0:o_3_24_3= 699.9938m
 +   0:o_3_24_4=  14.2198n    0:o_3_25_1= 699.9938m    0:o_3_25_2= 699.9938m
 +   0:o_3_25_3= 699.9938m    0:o_3_25_4=  14.2198n    0:o_3_26_1= 699.9938m
 +   0:o_3_26_2= 699.9938m    0:o_3_26_3= 699.9938m    0:o_3_26_4=  14.2198n
 +   0:o_3_27_1= 699.9938m    0:o_3_27_2= 699.9938m    0:o_3_27_3= 699.9938m
 +   0:o_3_27_4=  14.2198n    0:o_3_28_1= 699.9938m    0:o_3_28_2=  14.2198n
 +   0:o_3_28_3=  14.2198n    0:o_3_28_4=  14.2198n    0:o_3_29_1=  14.2198n
 +   0:o_3_29_2=  14.2198n    0:o_3_29_3=  14.2198n    0:o_3_29_4=  14.2198n
 +   0:o_3_2_1 =  14.2198n    0:o_3_2_2 = 699.9938m    0:o_3_2_3 = 699.9938m
 +   0:o_3_2_4 =  14.2198n    0:o_3_30_1=  14.2198n    0:o_3_30_2=  14.2198n
 +   0:o_3_30_3= 699.9938m    0:o_3_30_4=  14.2198n    0:o_3_31_1= 699.9938m
 +   0:o_3_31_2=  14.2198n    0:o_3_31_3=  14.2198n    0:o_3_31_4= 699.9938m
 +   0:o_3_32_1=  14.2198n    0:o_3_32_2=  14.2198n    0:o_3_32_3= 699.9938m
 +   0:o_3_32_4= 699.9938m    0:o_3_3_1 =  14.2198n    0:o_3_3_2 = 699.9938m
 +   0:o_3_3_3 =  14.2198n    0:o_3_3_4 =  14.2198n    0:o_3_4_1 = 699.9938m
 +   0:o_3_4_2 =  14.2198n    0:o_3_4_3 = 699.9938m    0:o_3_4_4 =  14.2198n
 +   0:o_3_5_1 = 699.9938m    0:o_3_5_2 =  14.2198n    0:o_3_5_3 =  14.2198n
 +   0:o_3_5_4 = 699.9938m    0:o_3_6_1 = 699.9938m    0:o_3_6_2 =  14.2198n
 +   0:o_3_6_3 = 699.9938m    0:o_3_6_4 =  14.2198n    0:o_3_7_1 =  14.2198n
 +   0:o_3_7_2 =  14.2198n    0:o_3_7_3 =  14.2198n    0:o_3_7_4 = 699.9938m
 +   0:o_3_8_1 =  14.2198n    0:o_3_8_2 =  14.2198n    0:o_3_8_3 =  14.2198n
 +   0:o_3_8_4 =  14.2198n    0:o_3_9_1 = 699.9938m    0:o_3_9_2 = 699.9938m
 +   0:o_3_9_3 = 699.9938m    0:o_3_9_4 = 699.9938m    0:o_4_10_1=  14.2198n
 +   0:o_4_10_2=  14.2198n    0:o_4_10_3= 699.9938m    0:o_4_10_4=  14.2198n
 +   0:o_4_11_1= 699.9938m    0:o_4_11_2=  14.2198n    0:o_4_11_3= 699.9938m
 +   0:o_4_11_4= 699.9938m    0:o_4_12_1=  14.2198n    0:o_4_12_2=  14.2198n
 +   0:o_4_12_3= 699.9938m    0:o_4_12_4= 699.9938m    0:o_4_13_1= 699.9938m
 +   0:o_4_13_2=  14.2198n    0:o_4_13_3=  14.2198n    0:o_4_13_4= 699.9938m
 +   0:o_4_14_1=  14.2198n    0:o_4_14_2= 699.9938m    0:o_4_14_3=  14.2198n
 +   0:o_4_14_4= 699.9938m    0:o_4_15_1= 699.9938m    0:o_4_15_2=  14.2198n
 +   0:o_4_15_3=  14.2198n    0:o_4_15_4= 699.9938m    0:o_4_16_1= 699.9938m
 +   0:o_4_16_2=  14.2198n    0:o_4_16_3=  14.2198n    0:o_4_16_4= 699.9938m
 +   0:o_4_17_1=  14.2198n    0:o_4_17_2= 699.9938m    0:o_4_17_3= 699.9938m
 +   0:o_4_17_4= 699.9938m    0:o_4_18_1=  14.2198n    0:o_4_18_2=  14.2198n
 +   0:o_4_18_3=  14.2198n    0:o_4_18_4= 699.9938m    0:o_4_19_1=  14.2198n
 +   0:o_4_19_2=  14.2198n    0:o_4_19_3= 699.9938m    0:o_4_19_4=  14.2198n
 +   0:o_4_1_1 =  14.2198n    0:o_4_1_2 = 699.9938m    0:o_4_1_3 =  14.2198n
 +   0:o_4_1_4 = 699.9938m    0:o_4_20_1=  14.2198n    0:o_4_20_2=  14.2198n
 +   0:o_4_20_3=  14.2198n    0:o_4_20_4=  14.2198n    0:o_4_21_1=  14.2198n
 +   0:o_4_21_2=  14.2198n    0:o_4_21_3=  14.2198n    0:o_4_21_4=  14.2198n
 +   0:o_4_22_1=  14.2198n    0:o_4_22_2= 699.9938m    0:o_4_22_3= 699.9938m
 +   0:o_4_22_4=  14.2198n    0:o_4_23_1= 699.9938m    0:o_4_23_2=  14.2198n
 +   0:o_4_23_3=  14.2198n    0:o_4_23_4=  14.2198n    0:o_4_24_1=  14.2198n
 +   0:o_4_24_2= 699.9938m    0:o_4_24_3=  14.2198n    0:o_4_24_4=  14.2198n
 +   0:o_4_25_1= 699.9938m    0:o_4_25_2=  14.2198n    0:o_4_25_3=  14.2198n
 +   0:o_4_25_4=  14.2198n    0:o_4_26_1= 699.9938m    0:o_4_26_2=  14.2198n
 +   0:o_4_26_3= 699.9938m    0:o_4_26_4= 699.9938m    0:o_4_27_1=  14.2198n
 +   0:o_4_27_2= 699.9938m    0:o_4_27_3= 699.9938m    0:o_4_27_4=  14.2198n
 +   0:o_4_28_1= 699.9938m    0:o_4_28_2= 699.9938m    0:o_4_28_3=  14.2198n
 +   0:o_4_28_4= 699.9938m    0:o_4_29_1=  14.2198n    0:o_4_29_2=  14.2198n
 +   0:o_4_29_3= 699.9938m    0:o_4_29_4= 699.9938m    0:o_4_2_1 = 699.9938m
 +   0:o_4_2_2 = 699.9938m    0:o_4_2_3 =  14.2198n    0:o_4_2_4 = 699.9938m
 +   0:o_4_30_1= 699.9938m    0:o_4_30_2=  14.2198n    0:o_4_30_3= 699.9938m
 +   0:o_4_30_4=  14.2198n    0:o_4_31_1= 699.9938m    0:o_4_31_2= 699.9938m
 +   0:o_4_31_3=  14.2198n    0:o_4_31_4= 699.9938m    0:o_4_32_1= 699.9938m
 +   0:o_4_32_2= 699.9938m    0:o_4_32_3=  14.2198n    0:o_4_32_4= 699.9938m
 +   0:o_4_3_1 =  14.2198n    0:o_4_3_2 =  14.2198n    0:o_4_3_3 = 699.9938m
 +   0:o_4_3_4 =  14.2198n    0:o_4_4_1 =  14.2198n    0:o_4_4_2 =  14.2198n
 +   0:o_4_4_3 = 699.9938m    0:o_4_4_4 = 699.9938m    0:o_4_5_1 = 699.9938m
 +   0:o_4_5_2 =  14.2198n    0:o_4_5_3 = 699.9938m    0:o_4_5_4 =  14.2198n
 +   0:o_4_6_1 =  14.2198n    0:o_4_6_2 =  14.2198n    0:o_4_6_3 = 699.9938m
 +   0:o_4_6_4 =  14.2198n    0:o_4_7_1 = 699.9938m    0:o_4_7_2 =  14.2198n
 +   0:o_4_7_3 =  14.2198n    0:o_4_7_4 =  14.2198n    0:o_4_8_1 =  14.2198n
 +   0:o_4_8_2 =  14.2198n    0:o_4_8_3 =  14.2198n    0:o_4_8_4 =  14.2198n
 +   0:o_4_9_1 = 699.9938m    0:o_4_9_2 = 699.9938m    0:o_4_9_3 = 699.9938m
 +   0:o_4_9_4 = 699.9938m    0:vdd     = 700.0000m    0:vss     =   0.     
 +   0:w_1_10_1= 999.9997m    0:w_1_10_1=  89.3112f    0:w_1_10_2=  85.6197f
 +   0:w_1_10_2= 999.9997m    0:w_1_10_3=  85.6197f    0:w_1_10_3= 999.9997m
 +   0:w_1_10_4= 999.9997m    0:w_1_10_4=  89.3112f    0:w_1_11_1= 999.9997m
 +   0:w_1_11_1=  89.3112f    0:w_1_11_2= 999.9997m    0:w_1_11_2=  89.3112f
 +   0:w_1_11_3=  85.6197f    0:w_1_11_3= 999.9997m    0:w_1_11_4= 999.9997m
 +   0:w_1_11_4=  89.3112f    0:w_1_12_1= 999.9997m    0:w_1_12_1=  89.3112f
 +   0:w_1_12_2= 999.9997m    0:w_1_12_2=  89.3112f    0:w_1_12_3= 999.9997m
 +   0:w_1_12_3=  89.3112f    0:w_1_12_4= 999.9997m    0:w_1_12_4=  89.3112f
 +   0:w_1_13_1= 999.9997m    0:w_1_13_1=  89.3112f    0:w_1_13_2=  85.6197f
 +   0:w_1_13_2= 999.9997m    0:w_1_13_3=  85.6197f    0:w_1_13_3= 999.9997m
 +   0:w_1_13_4=  85.6197f    0:w_1_13_4= 999.9997m    0:w_1_14_1= 999.9997m
 +   0:w_1_14_1=  89.3112f    0:w_1_14_2=  85.6197f    0:w_1_14_2= 999.9997m
 +   0:w_1_14_3=  85.6197f    0:w_1_14_3= 999.9997m    0:w_1_14_4= 999.9997m
 +   0:w_1_14_4=  89.3112f    0:w_1_15_1=  85.6197f    0:w_1_15_1= 999.9997m
 +   0:w_1_15_2=  85.6197f    0:w_1_15_2= 999.9997m    0:w_1_15_3=  85.6197f
 +   0:w_1_15_3= 999.9997m    0:w_1_15_4=  85.6197f    0:w_1_15_4= 999.9997m
 +   0:w_1_16_1= 999.9997m    0:w_1_16_1=  89.3112f    0:w_1_16_2=  85.6197f
 +   0:w_1_16_2= 999.9997m    0:w_1_16_3=  85.6197f    0:w_1_16_3= 999.9997m
 +   0:w_1_16_4=  85.6197f    0:w_1_16_4= 999.9997m    0:w_1_17_1= 999.9997m
 +   0:w_1_17_1=  89.3112f    0:w_1_17_2=  85.6197f    0:w_1_17_2= 999.9997m
 +   0:w_1_17_3=  85.6197f    0:w_1_17_3= 999.9997m    0:w_1_17_4= 999.9997m
 +   0:w_1_17_4=  89.3112f    0:w_1_18_1= 999.9997m    0:w_1_18_1=  89.3112f
 +   0:w_1_18_2= 999.9997m    0:w_1_18_2=  89.3112f    0:w_1_18_3= 999.9997m
 +   0:w_1_18_3=  89.3112f    0:w_1_18_4=  85.6197f    0:w_1_18_4= 999.9997m
 +   0:w_1_19_1= 999.9997m    0:w_1_19_1=  89.3112f    0:w_1_19_2= 999.9997m
 +   0:w_1_19_2=  89.3112f    0:w_1_19_3= 999.9997m    0:w_1_19_3=  89.3112f
 +   0:w_1_19_4= 999.9997m    0:w_1_19_4=  89.3112f    0:w_1_1_1 = 999.9997m
 +   0:w_1_1_1_=  89.3112f    0:w_1_1_2 = 999.9997m    0:w_1_1_2_=  89.3112f
 +   0:w_1_1_3 = 999.9997m    0:w_1_1_3_=  89.3112f    0:w_1_1_4 = 999.9997m
 +   0:w_1_1_4_=  89.3112f    0:w_1_20_1=  85.6197f    0:w_1_20_1= 999.9997m
 +   0:w_1_20_2=  85.6197f    0:w_1_20_2= 999.9997m    0:w_1_20_3= 999.9997m
 +   0:w_1_20_3=  89.3112f    0:w_1_20_4=  85.6197f    0:w_1_20_4= 999.9997m
 +   0:w_1_21_1= 999.9997m    0:w_1_21_1=  89.3112f    0:w_1_21_2= 999.9997m
 +   0:w_1_21_2=  89.3112f    0:w_1_21_3= 999.9997m    0:w_1_21_3=  89.3112f
 +   0:w_1_21_4= 999.9997m    0:w_1_21_4=  89.3112f    0:w_1_22_1=  85.6197f
 +   0:w_1_22_1= 999.9997m    0:w_1_22_2= 999.9997m    0:w_1_22_2=  89.3112f
 +   0:w_1_22_3= 999.9997m    0:w_1_22_3=  89.3112f    0:w_1_22_4=  85.6197f
 +   0:w_1_22_4= 999.9997m    0:w_1_23_1= 999.9997m    0:w_1_23_1=  89.3112f
 +   0:w_1_23_2=  85.6197f    0:w_1_23_2= 999.9997m    0:w_1_23_3= 999.9997m
 +   0:w_1_23_3=  89.3112f    0:w_1_23_4= 999.9997m    0:w_1_23_4=  89.3112f
 +   0:w_1_24_1=  85.6197f    0:w_1_24_1= 999.9997m    0:w_1_24_2= 999.9997m
 +   0:w_1_24_2=  89.3112f    0:w_1_24_3=  85.6197f    0:w_1_24_3= 999.9997m
 +   0:w_1_24_4= 999.9997m    0:w_1_24_4=  89.3112f    0:w_1_25_1= 999.9997m
 +   0:w_1_25_1=  89.3112f    0:w_1_25_2= 999.9997m    0:w_1_25_2=  89.3112f
 +   0:w_1_25_3= 999.9997m    0:w_1_25_3=  89.3112f    0:w_1_25_4= 999.9997m
 +   0:w_1_25_4=  89.3112f    0:w_1_26_1= 999.9997m    0:w_1_26_1=  89.3112f
 +   0:w_1_26_2=  85.6197f    0:w_1_26_2= 999.9997m    0:w_1_26_3= 999.9997m
 +   0:w_1_26_3=  89.3112f    0:w_1_26_4=  85.6197f    0:w_1_26_4= 999.9997m
 +   0:w_1_27_1= 999.9997m    0:w_1_27_1=  89.3112f    0:w_1_27_2= 999.9997m
 +   0:w_1_27_2=  89.3112f    0:w_1_27_3= 999.9997m    0:w_1_27_3=  89.3112f
 +   0:w_1_27_4=  85.6197f    0:w_1_27_4= 999.9997m    0:w_1_28_1=  85.6197f
 +   0:w_1_28_1= 999.9997m    0:w_1_28_2=  85.6197f    0:w_1_28_2= 999.9997m
 +   0:w_1_28_3= 999.9997m    0:w_1_28_3=  89.3112f    0:w_1_28_4= 999.9997m
 +   0:w_1_28_4=  89.3112f    0:w_1_29_1=  85.6197f    0:w_1_29_1= 999.9997m
 +   0:w_1_29_2= 999.9997m    0:w_1_29_2=  89.3112f    0:w_1_29_3= 999.9997m
 +   0:w_1_29_3=  89.3112f    0:w_1_29_4=  85.6197f    0:w_1_29_4= 999.9997m
 +   0:w_1_2_1 = 999.9997m    0:w_1_2_1_=  89.3112f    0:w_1_2_2 = 999.9997m
 +   0:w_1_2_2_=  89.3112f    0:w_1_2_3 = 999.9997m    0:w_1_2_3_=  89.3112f
 +   0:w_1_2_4 = 999.9997m    0:w_1_2_4_=  89.3112f    0:w_1_30_1=  85.6197f
 +   0:w_1_30_1= 999.9997m    0:w_1_30_2=  85.6197f    0:w_1_30_2= 999.9997m
 +   0:w_1_30_3= 999.9997m    0:w_1_30_3=  89.3112f    0:w_1_30_4=  85.6197f
 +   0:w_1_30_4= 999.9997m    0:w_1_31_1= 999.9997m    0:w_1_31_1=  89.3112f
 +   0:w_1_31_2= 999.9997m    0:w_1_31_2=  89.3112f    0:w_1_31_3= 999.9997m
 +   0:w_1_31_3=  89.3112f    0:w_1_31_4=  85.6197f    0:w_1_31_4= 999.9997m
 +   0:w_1_32_1=  85.6197f    0:w_1_32_1= 999.9997m    0:w_1_32_2= 999.9997m
 +   0:w_1_32_2=  89.3112f    0:w_1_32_3= 999.9997m    0:w_1_32_3=  89.3112f
 +   0:w_1_32_4= 999.9997m    0:w_1_32_4=  89.3112f    0:w_1_3_1 =  85.6197f
 +   0:w_1_3_1_= 999.9997m    0:w_1_3_2 =  85.6197f    0:w_1_3_2_= 999.9997m
 +   0:w_1_3_3 =  85.6197f    0:w_1_3_3_= 999.9997m    0:w_1_3_4 =  85.6197f
 +   0:w_1_3_4_= 999.9997m    0:w_1_4_1 =  85.6197f    0:w_1_4_1_= 999.9997m
 +   0:w_1_4_2 = 999.9997m    0:w_1_4_2_=  89.3112f    0:w_1_4_3 =  85.6197f
 +   0:w_1_4_3_= 999.9997m    0:w_1_4_4 = 999.9997m    0:w_1_4_4_=  89.3112f
 +   0:w_1_5_1 =  85.6197f    0:w_1_5_1_= 999.9997m    0:w_1_5_2 =  85.6197f
 +   0:w_1_5_2_= 999.9997m    0:w_1_5_3 = 999.9997m    0:w_1_5_3_=  89.3112f
 +   0:w_1_5_4 =  85.6197f    0:w_1_5_4_= 999.9997m    0:w_1_6_1 =  85.6197f
 +   0:w_1_6_1_= 999.9997m    0:w_1_6_2 =  85.6197f    0:w_1_6_2_= 999.9997m
 +   0:w_1_6_3 = 999.9997m    0:w_1_6_3_=  89.3112f    0:w_1_6_4 =  85.6197f
 +   0:w_1_6_4_= 999.9997m    0:w_1_7_1 =  85.6197f    0:w_1_7_1_= 999.9997m
 +   0:w_1_7_2 = 999.9997m    0:w_1_7_2_=  89.3112f    0:w_1_7_3 = 999.9997m
 +   0:w_1_7_3_=  89.3112f    0:w_1_7_4 = 999.9997m    0:w_1_7_4_=  89.3112f
 +   0:w_1_8_1 = 999.9997m    0:w_1_8_1_=  89.3112f    0:w_1_8_2 = 999.9997m
 +   0:w_1_8_2_=  89.3112f    0:w_1_8_3 =  85.6197f    0:w_1_8_3_= 999.9997m
 +   0:w_1_8_4 =  85.6197f    0:w_1_8_4_= 999.9997m    0:w_1_9_1 = 999.9997m
 +   0:w_1_9_1_=  89.3112f    0:w_1_9_2 = 999.9997m    0:w_1_9_2_=  89.3112f
 +   0:w_1_9_3 =  85.6197f    0:w_1_9_3_= 999.9997m    0:w_1_9_4 = 999.9997m
 +   0:w_1_9_4_=  89.3112f    0:w_2_10_1=  85.6197f    0:w_2_10_1= 999.9997m
 +   0:w_2_10_2=  85.6197f    0:w_2_10_2= 999.9997m    0:w_2_10_3=  85.6197f
 +   0:w_2_10_3= 999.9997m    0:w_2_10_4=  85.6197f    0:w_2_10_4= 999.9997m
 +   0:w_2_11_1=  85.6197f    0:w_2_11_1= 999.9997m    0:w_2_11_2=  85.6197f
 +   0:w_2_11_2= 999.9997m    0:w_2_11_3= 999.9997m    0:w_2_11_3=  89.3112f
 +   0:w_2_11_4=  85.6197f    0:w_2_11_4= 999.9997m    0:w_2_12_1=  85.6197f
 +   0:w_2_12_1= 999.9997m    0:w_2_12_2=  85.6197f    0:w_2_12_2= 999.9997m
 +   0:w_2_12_3=  85.6197f    0:w_2_12_3= 999.9997m    0:w_2_12_4=  85.6197f
 +   0:w_2_12_4= 999.9997m    0:w_2_13_1=  85.6197f    0:w_2_13_1= 999.9997m
 +   0:w_2_13_2=  85.6197f    0:w_2_13_2= 999.9997m    0:w_2_13_3= 999.9997m
 +   0:w_2_13_3=  89.3112f    0:w_2_13_4= 999.9997m    0:w_2_13_4=  89.3112f
 +   0:w_2_14_1=  85.6197f    0:w_2_14_1= 999.9997m    0:w_2_14_2=  85.6197f
 +   0:w_2_14_2= 999.9997m    0:w_2_14_3= 999.9997m    0:w_2_14_3=  89.3112f
 +   0:w_2_14_4=  85.6197f    0:w_2_14_4= 999.9997m    0:w_2_15_1=  85.6197f
 +   0:w_2_15_1= 999.9997m    0:w_2_15_2=  85.6197f    0:w_2_15_2= 999.9997m
 +   0:w_2_15_3= 999.9997m    0:w_2_15_3=  89.3112f    0:w_2_15_4= 999.9997m
 +   0:w_2_15_4=  89.3112f    0:w_2_16_1=  85.6197f    0:w_2_16_1= 999.9997m
 +   0:w_2_16_2= 999.9997m    0:w_2_16_2=  89.3112f    0:w_2_16_3=  85.6197f
 +   0:w_2_16_3= 999.9997m    0:w_2_16_4= 999.9997m    0:w_2_16_4=  89.3112f
 +   0:w_2_17_1=  85.6197f    0:w_2_17_1= 999.9997m    0:w_2_17_2= 999.9997m
 +   0:w_2_17_2=  89.3112f    0:w_2_17_3= 999.9997m    0:w_2_17_3=  89.3112f
 +   0:w_2_17_4=  85.6197f    0:w_2_17_4= 999.9997m    0:w_2_18_1=  85.6197f
 +   0:w_2_18_1= 999.9997m    0:w_2_18_2= 999.9997m    0:w_2_18_2=  89.3112f
 +   0:w_2_18_3=  85.6197f    0:w_2_18_3= 999.9997m    0:w_2_18_4=  85.6197f
 +   0:w_2_18_4= 999.9997m    0:w_2_19_1= 999.9997m    0:w_2_19_1=  89.3112f
 +   0:w_2_19_2= 999.9997m    0:w_2_19_2=  89.3112f    0:w_2_19_3=  85.6197f
 +   0:w_2_19_3= 999.9997m    0:w_2_19_4= 999.9997m    0:w_2_19_4=  89.3112f
 +   0:w_2_1_1 = 999.9997m    0:w_2_1_1_=  89.3112f    0:w_2_1_2 =  85.6197f
 +   0:w_2_1_2_= 999.9997m    0:w_2_1_3 = 999.9997m    0:w_2_1_3_=  89.3112f
 +   0:w_2_1_4 = 999.9997m    0:w_2_1_4_=  89.3112f    0:w_2_20_1= 999.9997m
 +   0:w_2_20_1=  89.3112f    0:w_2_20_2= 999.9997m    0:w_2_20_2=  89.3112f
 +   0:w_2_20_3=  85.6197f    0:w_2_20_3= 999.9997m    0:w_2_20_4= 999.9997m
 +   0:w_2_20_4=  89.3112f    0:w_2_21_1=  85.6197f    0:w_2_21_1= 999.9997m
 +   0:w_2_21_2= 999.9997m    0:w_2_21_2=  89.3112f    0:w_2_21_3=  85.6197f
 +   0:w_2_21_3= 999.9997m    0:w_2_21_4= 999.9997m    0:w_2_21_4=  89.3112f
 +   0:w_2_22_1=  85.6197f    0:w_2_22_1= 999.9997m    0:w_2_22_2=  85.6197f
 +   0:w_2_22_2= 999.9997m    0:w_2_22_3=  85.6197f    0:w_2_22_3= 999.9997m
 +   0:w_2_22_4=  85.6197f    0:w_2_22_4= 999.9997m    0:w_2_23_1=  85.6197f
 +   0:w_2_23_1= 999.9997m    0:w_2_23_2= 999.9997m    0:w_2_23_2=  89.3112f
 +   0:w_2_23_3= 999.9997m    0:w_2_23_3=  89.3112f    0:w_2_23_4=  85.6197f
 +   0:w_2_23_4= 999.9997m    0:w_2_24_1=  85.6197f    0:w_2_24_1= 999.9997m
 +   0:w_2_24_2=  85.6197f    0:w_2_24_2= 999.9997m    0:w_2_24_3= 999.9997m
 +   0:w_2_24_3=  89.3112f    0:w_2_24_4= 999.9997m    0:w_2_24_4=  89.3112f
 +   0:w_2_25_1= 999.9997m    0:w_2_25_1=  89.3112f    0:w_2_25_2=  85.6197f
 +   0:w_2_25_2= 999.9997m    0:w_2_25_3=  85.6197f    0:w_2_25_3= 999.9997m
 +   0:w_2_25_4=  85.6197f    0:w_2_25_4= 999.9997m    0:w_2_26_1= 999.9997m
 +   0:w_2_26_1=  89.3112f    0:w_2_26_2=  85.6197f    0:w_2_26_2= 999.9997m
 +   0:w_2_26_3= 999.9997m    0:w_2_26_3=  89.3112f    0:w_2_26_4= 999.9997m
 +   0:w_2_26_4=  89.3112f    0:w_2_27_1= 999.9997m    0:w_2_27_1=  89.3112f
 +   0:w_2_27_2= 999.9997m    0:w_2_27_2=  89.3112f    0:w_2_27_3=  85.6197f
 +   0:w_2_27_3= 999.9997m    0:w_2_27_4= 999.9997m    0:w_2_27_4=  89.3112f
 +   0:w_2_28_1=  85.6197f    0:w_2_28_1= 999.9997m    0:w_2_28_2=  85.6197f
 +   0:w_2_28_2= 999.9997m    0:w_2_28_3=  85.6197f    0:w_2_28_3= 999.9997m
 +   0:w_2_28_4= 999.9997m    0:w_2_28_4=  89.3112f    0:w_2_29_1=  85.6197f
 +   0:w_2_29_1= 999.9997m    0:w_2_29_2= 999.9997m    0:w_2_29_2=  89.3112f
 +   0:w_2_29_3=  85.6197f    0:w_2_29_3= 999.9997m    0:w_2_29_4=  85.6197f
 +   0:w_2_29_4= 999.9997m    0:w_2_2_1 = 999.9997m    0:w_2_2_1_=  89.3112f
 +   0:w_2_2_2 =  85.6197f    0:w_2_2_2_= 999.9997m    0:w_2_2_3 =  85.6197f
 +   0:w_2_2_3_= 999.9997m    0:w_2_2_4 =  85.6197f    0:w_2_2_4_= 999.9997m
 +   0:w_2_30_1= 999.9997m    0:w_2_30_1=  89.3112f    0:w_2_30_2=  85.6197f
 +   0:w_2_30_2= 999.9997m    0:w_2_30_3= 999.9997m    0:w_2_30_3=  89.3112f
 +   0:w_2_30_4=  85.6197f    0:w_2_30_4= 999.9997m    0:w_2_31_1= 999.9997m
 +   0:w_2_31_1=  89.3112f    0:w_2_31_2=  85.6197f    0:w_2_31_2= 999.9997m
 +   0:w_2_31_3= 999.9997m    0:w_2_31_3=  89.3112f    0:w_2_31_4=  85.6197f
 +   0:w_2_31_4= 999.9997m    0:w_2_32_1=  85.6197f    0:w_2_32_1= 999.9997m
 +   0:w_2_32_2= 999.9997m    0:w_2_32_2=  89.3112f    0:w_2_32_3=  85.6197f
 +   0:w_2_32_3= 999.9997m    0:w_2_32_4= 999.9997m    0:w_2_32_4=  89.3112f
 +   0:w_2_3_1 =  85.6197f    0:w_2_3_1_= 999.9997m    0:w_2_3_2 =  85.6197f
 +   0:w_2_3_2_= 999.9997m    0:w_2_3_3 = 999.9997m    0:w_2_3_3_=  89.3112f
 +   0:w_2_3_4 =  85.6197f    0:w_2_3_4_= 999.9997m    0:w_2_4_1 =  85.6197f
 +   0:w_2_4_1_= 999.9997m    0:w_2_4_2 =  85.6197f    0:w_2_4_2_= 999.9997m
 +   0:w_2_4_3 =  85.6197f    0:w_2_4_3_= 999.9997m    0:w_2_4_4 = 999.9997m
 +   0:w_2_4_4_=  89.3112f    0:w_2_5_1 =  85.6197f    0:w_2_5_1_= 999.9997m
 +   0:w_2_5_2 = 999.9997m    0:w_2_5_2_=  89.3112f    0:w_2_5_3 =  85.6197f
 +   0:w_2_5_3_= 999.9997m    0:w_2_5_4 = 999.9997m    0:w_2_5_4_=  89.3112f
 +   0:w_2_6_1 =  85.6197f    0:w_2_6_1_= 999.9997m    0:w_2_6_2 =  85.6197f
 +   0:w_2_6_2_= 999.9997m    0:w_2_6_3 =  85.6197f    0:w_2_6_3_= 999.9997m
 +   0:w_2_6_4 = 999.9997m    0:w_2_6_4_=  89.3112f    0:w_2_7_1 = 999.9997m
 +   0:w_2_7_1_=  89.3112f    0:w_2_7_2 =  85.6197f    0:w_2_7_2_= 999.9997m
 +   0:w_2_7_3 =  85.6197f    0:w_2_7_3_= 999.9997m    0:w_2_7_4 =  85.6197f
 +   0:w_2_7_4_= 999.9997m    0:w_2_8_1 = 999.9997m    0:w_2_8_1_=  89.3112f
 +   0:w_2_8_2 =  85.6197f    0:w_2_8_2_= 999.9997m    0:w_2_8_3 =  85.6197f
 +   0:w_2_8_3_= 999.9997m    0:w_2_8_4 = 999.9997m    0:w_2_8_4_=  89.3112f
 +   0:w_2_9_1 =  85.6197f    0:w_2_9_1_= 999.9997m    0:w_2_9_2 = 999.9997m
 +   0:w_2_9_2_=  89.3112f    0:w_2_9_3 =  85.6197f    0:w_2_9_3_= 999.9997m
 +   0:w_2_9_4 = 999.9997m    0:w_2_9_4_=  89.3112f    0:w_3_10_1= 999.9997m
 +   0:w_3_10_1=  89.3112f    0:w_3_10_2=  85.6197f    0:w_3_10_2= 999.9997m
 +   0:w_3_10_3= 999.9997m    0:w_3_10_3=  89.3112f    0:w_3_10_4= 999.9997m
 +   0:w_3_10_4=  89.3112f    0:w_3_11_1=  85.6197f    0:w_3_11_1= 999.9997m
 +   0:w_3_11_2=  85.6197f    0:w_3_11_2= 999.9997m    0:w_3_11_3= 999.9997m
 +   0:w_3_11_3=  89.3112f    0:w_3_11_4= 999.9997m    0:w_3_11_4=  89.3112f
 +   0:w_3_12_1= 999.9997m    0:w_3_12_1=  89.3112f    0:w_3_12_2= 999.9997m
 +   0:w_3_12_2=  89.3112f    0:w_3_12_3=  85.6197f    0:w_3_12_3= 999.9997m
 +   0:w_3_12_4=  85.6197f    0:w_3_12_4= 999.9997m    0:w_3_13_1= 999.9997m
 +   0:w_3_13_1=  89.3112f    0:w_3_13_2= 999.9997m    0:w_3_13_2=  89.3112f
 +   0:w_3_13_3= 999.9997m    0:w_3_13_3=  89.3112f    0:w_3_13_4=  85.6197f
 +   0:w_3_13_4= 999.9997m    0:w_3_14_1=  85.6197f    0:w_3_14_1= 999.9997m
 +   0:w_3_14_2=  85.6197f    0:w_3_14_2= 999.9997m    0:w_3_14_3=  85.6197f
 +   0:w_3_14_3= 999.9997m    0:w_3_14_4=  85.6197f    0:w_3_14_4= 999.9997m
 +   0:w_3_15_1=  85.6197f    0:w_3_15_1= 999.9997m    0:w_3_15_2= 999.9997m
 +   0:w_3_15_2=  89.3112f    0:w_3_15_3= 999.9997m    0:w_3_15_3=  89.3112f
 +   0:w_3_15_4=  85.6197f    0:w_3_15_4= 999.9997m    0:w_3_16_1=  85.6197f
 +   0:w_3_16_1= 999.9997m    0:w_3_16_2=  85.6197f    0:w_3_16_2= 999.9997m
 +   0:w_3_16_3=  85.6197f    0:w_3_16_3= 999.9997m    0:w_3_16_4=  85.6197f
 +   0:w_3_16_4= 999.9997m    0:w_3_17_1= 999.9997m    0:w_3_17_1=  89.3112f
 +   0:w_3_17_2= 999.9997m    0:w_3_17_2=  89.3112f    0:w_3_17_3= 999.9997m
 +   0:w_3_17_3=  89.3112f    0:w_3_17_4= 999.9997m    0:w_3_17_4=  89.3112f
 +   0:w_3_18_1= 999.9997m    0:w_3_18_1=  89.3112f    0:w_3_18_2=  85.6197f
 +   0:w_3_18_2= 999.9997m    0:w_3_18_3=  85.6197f    0:w_3_18_3= 999.9997m
 +   0:w_3_18_4= 999.9997m    0:w_3_18_4=  89.3112f    0:w_3_19_1= 999.9997m
 +   0:w_3_19_1=  89.3112f    0:w_3_19_2=  85.6197f    0:w_3_19_2= 999.9997m
 +   0:w_3_19_3=  85.6197f    0:w_3_19_3= 999.9997m    0:w_3_19_4=  85.6197f
 +   0:w_3_19_4= 999.9997m    0:w_3_1_1 = 999.9997m    0:w_3_1_1_=  89.3112f
 +   0:w_3_1_2 =  85.6197f    0:w_3_1_2_= 999.9997m    0:w_3_1_3 =  85.6197f
 +   0:w_3_1_3_= 999.9997m    0:w_3_1_4 = 999.9997m    0:w_3_1_4_=  89.3112f
 +   0:w_3_20_1= 999.9997m    0:w_3_20_1=  89.3112f    0:w_3_20_2= 999.9997m
 +   0:w_3_20_2=  89.3112f    0:w_3_20_3=  85.6197f    0:w_3_20_3= 999.9997m
 +   0:w_3_20_4= 999.9997m    0:w_3_20_4=  89.3112f    0:w_3_21_1= 999.9997m
 +   0:w_3_21_1=  89.3112f    0:w_3_21_2= 999.9997m    0:w_3_21_2=  89.3112f
 +   0:w_3_21_3= 999.9997m    0:w_3_21_3=  89.3112f    0:w_3_21_4=  85.6197f
 +   0:w_3_21_4= 999.9997m    0:w_3_22_1=  85.6197f    0:w_3_22_1= 999.9997m
 +   0:w_3_22_2= 999.9997m    0:w_3_22_2=  89.3112f    0:w_3_22_3=  85.6197f
 +   0:w_3_22_3= 999.9997m    0:w_3_22_4= 999.9997m    0:w_3_22_4=  89.3112f
 +   0:w_3_23_1=  85.6197f    0:w_3_23_1= 999.9997m    0:w_3_23_2=  85.6197f
 +   0:w_3_23_2= 999.9997m    0:w_3_23_3=  85.6197f    0:w_3_23_3= 999.9997m
 +   0:w_3_23_4= 999.9997m    0:w_3_23_4=  89.3112f    0:w_3_24_1= 999.9997m
 +   0:w_3_24_1=  89.3112f    0:w_3_24_2= 999.9997m    0:w_3_24_2=  89.3112f
 +   0:w_3_24_3= 999.9997m    0:w_3_24_3=  89.3112f    0:w_3_24_4=  85.6197f
 +   0:w_3_24_4= 999.9997m    0:w_3_25_1= 999.9997m    0:w_3_25_1=  89.3112f
 +   0:w_3_25_2= 999.9997m    0:w_3_25_2=  89.3112f    0:w_3_25_3= 999.9997m
 +   0:w_3_25_3=  89.3112f    0:w_3_25_4=  85.6197f    0:w_3_25_4= 999.9997m
 +   0:w_3_26_1= 999.9997m    0:w_3_26_1=  89.3112f    0:w_3_26_2= 999.9997m
 +   0:w_3_26_2=  89.3112f    0:w_3_26_3= 999.9997m    0:w_3_26_3=  89.3112f
 +   0:w_3_26_4=  85.6197f    0:w_3_26_4= 999.9997m    0:w_3_27_1= 999.9997m
 +   0:w_3_27_1=  89.3112f    0:w_3_27_2= 999.9997m    0:w_3_27_2=  89.3112f
 +   0:w_3_27_3= 999.9997m    0:w_3_27_3=  89.3112f    0:w_3_27_4=  85.6197f
 +   0:w_3_27_4= 999.9997m    0:w_3_28_1= 999.9997m    0:w_3_28_1=  89.3112f
 +   0:w_3_28_2=  85.6197f    0:w_3_28_2= 999.9997m    0:w_3_28_3=  85.6197f
 +   0:w_3_28_3= 999.9997m    0:w_3_28_4=  85.6197f    0:w_3_28_4= 999.9997m
 +   0:w_3_29_1=  85.6197f    0:w_3_29_1= 999.9997m    0:w_3_29_2=  85.6197f
 +   0:w_3_29_2= 999.9997m    0:w_3_29_3=  85.6197f    0:w_3_29_3= 999.9997m
 +   0:w_3_29_4=  85.6197f    0:w_3_29_4= 999.9997m    0:w_3_2_1 =  85.6197f
 +   0:w_3_2_1_= 999.9997m    0:w_3_2_2 = 999.9997m    0:w_3_2_2_=  89.3112f
 +   0:w_3_2_3 = 999.9997m    0:w_3_2_3_=  89.3112f    0:w_3_2_4 =  85.6197f
 +   0:w_3_2_4_= 999.9997m    0:w_3_30_1=  85.6197f    0:w_3_30_1= 999.9997m
 +   0:w_3_30_2=  85.6197f    0:w_3_30_2= 999.9997m    0:w_3_30_3= 999.9997m
 +   0:w_3_30_3=  89.3112f    0:w_3_30_4=  85.6197f    0:w_3_30_4= 999.9997m
 +   0:w_3_31_1= 999.9997m    0:w_3_31_1=  89.3112f    0:w_3_31_2=  85.6197f
 +   0:w_3_31_2= 999.9997m    0:w_3_31_3=  85.6197f    0:w_3_31_3= 999.9997m
 +   0:w_3_31_4= 999.9997m    0:w_3_31_4=  89.3112f    0:w_3_32_1=  85.6197f
 +   0:w_3_32_1= 999.9997m    0:w_3_32_2=  85.6197f    0:w_3_32_2= 999.9997m
 +   0:w_3_32_3= 999.9997m    0:w_3_32_3=  89.3112f    0:w_3_32_4= 999.9997m
 +   0:w_3_32_4=  89.3112f    0:w_3_3_1 =  85.6197f    0:w_3_3_1_= 999.9997m
 +   0:w_3_3_2 = 999.9997m    0:w_3_3_2_=  89.3112f    0:w_3_3_3 =  85.6197f
 +   0:w_3_3_3_= 999.9997m    0:w_3_3_4 =  85.6197f    0:w_3_3_4_= 999.9997m
 +   0:w_3_4_1 = 999.9997m    0:w_3_4_1_=  89.3112f    0:w_3_4_2 =  85.6197f
 +   0:w_3_4_2_= 999.9997m    0:w_3_4_3 = 999.9997m    0:w_3_4_3_=  89.3112f
 +   0:w_3_4_4 =  85.6197f    0:w_3_4_4_= 999.9997m    0:w_3_5_1 = 999.9997m
 +   0:w_3_5_1_=  89.3112f    0:w_3_5_2 =  85.6197f    0:w_3_5_2_= 999.9997m
 +   0:w_3_5_3 =  85.6197f    0:w_3_5_3_= 999.9997m    0:w_3_5_4 = 999.9997m
 +   0:w_3_5_4_=  89.3112f    0:w_3_6_1 = 999.9997m    0:w_3_6_1_=  89.3112f
 +   0:w_3_6_2 =  85.6197f    0:w_3_6_2_= 999.9997m    0:w_3_6_3 = 999.9997m
 +   0:w_3_6_3_=  89.3112f    0:w_3_6_4 =  85.6197f    0:w_3_6_4_= 999.9997m
 +   0:w_3_7_1 =  85.6197f    0:w_3_7_1_= 999.9997m    0:w_3_7_2 =  85.6197f
 +   0:w_3_7_2_= 999.9997m    0:w_3_7_3 =  85.6197f    0:w_3_7_3_= 999.9997m
 +   0:w_3_7_4 = 999.9997m    0:w_3_7_4_=  89.3112f    0:w_3_8_1 =  85.6197f
 +   0:w_3_8_1_= 999.9997m    0:w_3_8_2 =  85.6197f    0:w_3_8_2_= 999.9997m
 +   0:w_3_8_3 =  85.6197f    0:w_3_8_3_= 999.9997m    0:w_3_8_4 =  85.6197f
 +   0:w_3_8_4_= 999.9997m    0:w_3_9_1 = 999.9997m    0:w_3_9_1_=  89.3112f
 +   0:w_3_9_2 = 999.9997m    0:w_3_9_2_=  89.3112f    0:w_3_9_3 = 999.9997m
 +   0:w_3_9_3_=  89.3112f    0:w_3_9_4 = 999.9997m    0:w_3_9_4_=  89.3112f
 +   0:w_4_10_1=  85.6197f    0:w_4_10_1= 999.9997m    0:w_4_10_2=  85.6197f
 +   0:w_4_10_2= 999.9997m    0:w_4_10_3= 999.9997m    0:w_4_10_3=  89.3112f
 +   0:w_4_10_4=  85.6197f    0:w_4_10_4= 999.9997m    0:w_4_11_1= 999.9997m
 +   0:w_4_11_1=  89.3112f    0:w_4_11_2=  85.6197f    0:w_4_11_2= 999.9997m
 +   0:w_4_11_3= 999.9997m    0:w_4_11_3=  89.3112f    0:w_4_11_4= 999.9997m
 +   0:w_4_11_4=  89.3112f    0:w_4_12_1=  85.6197f    0:w_4_12_1= 999.9997m
 +   0:w_4_12_2=  85.6197f    0:w_4_12_2= 999.9997m    0:w_4_12_3= 999.9997m
 +   0:w_4_12_3=  89.3112f    0:w_4_12_4= 999.9997m    0:w_4_12_4=  89.3112f
 +   0:w_4_13_1= 999.9997m    0:w_4_13_1=  89.3112f    0:w_4_13_2=  85.6197f
 +   0:w_4_13_2= 999.9997m    0:w_4_13_3=  85.6197f    0:w_4_13_3= 999.9997m
 +   0:w_4_13_4= 999.9997m    0:w_4_13_4=  89.3112f    0:w_4_14_1=  85.6197f
 +   0:w_4_14_1= 999.9997m    0:w_4_14_2= 999.9997m    0:w_4_14_2=  89.3112f
 +   0:w_4_14_3=  85.6197f    0:w_4_14_3= 999.9997m    0:w_4_14_4= 999.9997m
 +   0:w_4_14_4=  89.3112f    0:w_4_15_1= 999.9997m    0:w_4_15_1=  89.3112f
 +   0:w_4_15_2=  85.6197f    0:w_4_15_2= 999.9997m    0:w_4_15_3=  85.6197f
 +   0:w_4_15_3= 999.9997m    0:w_4_15_4= 999.9997m    0:w_4_15_4=  89.3112f
 +   0:w_4_16_1= 999.9997m    0:w_4_16_1=  89.3112f    0:w_4_16_2=  85.6197f
 +   0:w_4_16_2= 999.9997m    0:w_4_16_3=  85.6197f    0:w_4_16_3= 999.9997m
 +   0:w_4_16_4= 999.9997m    0:w_4_16_4=  89.3112f    0:w_4_17_1=  85.6197f
 +   0:w_4_17_1= 999.9997m    0:w_4_17_2= 999.9997m    0:w_4_17_2=  89.3112f
 +   0:w_4_17_3= 999.9997m    0:w_4_17_3=  89.3112f    0:w_4_17_4= 999.9997m
 +   0:w_4_17_4=  89.3112f    0:w_4_18_1=  85.6197f    0:w_4_18_1= 999.9997m
 +   0:w_4_18_2=  85.6197f    0:w_4_18_2= 999.9997m    0:w_4_18_3=  85.6197f
 +   0:w_4_18_3= 999.9997m    0:w_4_18_4= 999.9997m    0:w_4_18_4=  89.3112f
 +   0:w_4_19_1=  85.6197f    0:w_4_19_1= 999.9997m    0:w_4_19_2=  85.6197f
 +   0:w_4_19_2= 999.9997m    0:w_4_19_3= 999.9997m    0:w_4_19_3=  89.3112f
 +   0:w_4_19_4=  85.6197f    0:w_4_19_4= 999.9997m    0:w_4_1_1 =  85.6197f
 +   0:w_4_1_1_= 999.9997m    0:w_4_1_2 = 999.9997m    0:w_4_1_2_=  89.3112f
 +   0:w_4_1_3 =  85.6197f    0:w_4_1_3_= 999.9997m    0:w_4_1_4 = 999.9997m
 +   0:w_4_1_4_=  89.3112f    0:w_4_20_1=  85.6197f    0:w_4_20_1= 999.9997m
 +   0:w_4_20_2=  85.6197f    0:w_4_20_2= 999.9997m    0:w_4_20_3=  85.6197f
 +   0:w_4_20_3= 999.9997m    0:w_4_20_4=  85.6197f    0:w_4_20_4= 999.9997m
 +   0:w_4_21_1=  85.6197f    0:w_4_21_1= 999.9997m    0:w_4_21_2=  85.6197f
 +   0:w_4_21_2= 999.9997m    0:w_4_21_3=  85.6197f    0:w_4_21_3= 999.9997m
 +   0:w_4_21_4=  85.6197f    0:w_4_21_4= 999.9997m    0:w_4_22_1=  85.6197f
 +   0:w_4_22_1= 999.9997m    0:w_4_22_2= 999.9997m    0:w_4_22_2=  89.3112f
 +   0:w_4_22_3= 999.9997m    0:w_4_22_3=  89.3112f    0:w_4_22_4=  85.6197f
 +   0:w_4_22_4= 999.9997m    0:w_4_23_1= 999.9997m    0:w_4_23_1=  89.3112f
 +   0:w_4_23_2=  85.6197f    0:w_4_23_2= 999.9997m    0:w_4_23_3=  85.6197f
 +   0:w_4_23_3= 999.9997m    0:w_4_23_4=  85.6197f    0:w_4_23_4= 999.9997m
 +   0:w_4_24_1=  85.6197f    0:w_4_24_1= 999.9997m    0:w_4_24_2= 999.9997m
 +   0:w_4_24_2=  89.3112f    0:w_4_24_3=  85.6197f    0:w_4_24_3= 999.9997m
 +   0:w_4_24_4=  85.6197f    0:w_4_24_4= 999.9997m    0:w_4_25_1= 999.9997m
 +   0:w_4_25_1=  89.3112f    0:w_4_25_2=  85.6197f    0:w_4_25_2= 999.9997m
 +   0:w_4_25_3=  85.6197f    0:w_4_25_3= 999.9997m    0:w_4_25_4=  85.6197f
 +   0:w_4_25_4= 999.9997m    0:w_4_26_1= 999.9997m    0:w_4_26_1=  89.3112f
 +   0:w_4_26_2=  85.6197f    0:w_4_26_2= 999.9997m    0:w_4_26_3= 999.9997m
 +   0:w_4_26_3=  89.3112f    0:w_4_26_4= 999.9997m    0:w_4_26_4=  89.3112f
 +   0:w_4_27_1=  85.6197f    0:w_4_27_1= 999.9997m    0:w_4_27_2= 999.9997m
 +   0:w_4_27_2=  89.3112f    0:w_4_27_3= 999.9997m    0:w_4_27_3=  89.3112f
 +   0:w_4_27_4=  85.6197f    0:w_4_27_4= 999.9997m    0:w_4_28_1= 999.9997m
 +   0:w_4_28_1=  89.3112f    0:w_4_28_2= 999.9997m    0:w_4_28_2=  89.3112f
 +   0:w_4_28_3=  85.6197f    0:w_4_28_3= 999.9997m    0:w_4_28_4= 999.9997m
 +   0:w_4_28_4=  89.3112f    0:w_4_29_1=  85.6197f    0:w_4_29_1= 999.9997m
 +   0:w_4_29_2=  85.6197f    0:w_4_29_2= 999.9997m    0:w_4_29_3= 999.9997m
 +   0:w_4_29_3=  89.3112f    0:w_4_29_4= 999.9997m    0:w_4_29_4=  89.3112f
 +   0:w_4_2_1 = 999.9997m    0:w_4_2_1_=  89.3112f    0:w_4_2_2 = 999.9997m
 +   0:w_4_2_2_=  89.3112f    0:w_4_2_3 =  85.6197f    0:w_4_2_3_= 999.9997m
 +   0:w_4_2_4 = 999.9997m    0:w_4_2_4_=  89.3112f    0:w_4_30_1= 999.9997m
 +   0:w_4_30_1=  89.3112f    0:w_4_30_2=  85.6197f    0:w_4_30_2= 999.9997m
 +   0:w_4_30_3= 999.9997m    0:w_4_30_3=  89.3112f    0:w_4_30_4=  85.6197f
 +   0:w_4_30_4= 999.9997m    0:w_4_31_1= 999.9997m    0:w_4_31_1=  89.3112f
 +   0:w_4_31_2= 999.9997m    0:w_4_31_2=  89.3112f    0:w_4_31_3=  85.6197f
 +   0:w_4_31_3= 999.9997m    0:w_4_31_4= 999.9997m    0:w_4_31_4=  89.3112f
 +   0:w_4_32_1= 999.9997m    0:w_4_32_1=  89.3112f    0:w_4_32_2= 999.9997m
 +   0:w_4_32_2=  89.3112f    0:w_4_32_3=  85.6197f    0:w_4_32_3= 999.9997m
 +   0:w_4_32_4= 999.9997m    0:w_4_32_4=  89.3112f    0:w_4_3_1 =  85.6197f
 +   0:w_4_3_1_= 999.9997m    0:w_4_3_2 =  85.6197f    0:w_4_3_2_= 999.9997m
 +   0:w_4_3_3 = 999.9997m    0:w_4_3_3_=  89.3112f    0:w_4_3_4 =  85.6197f
 +   0:w_4_3_4_= 999.9997m    0:w_4_4_1 =  85.6197f    0:w_4_4_1_= 999.9997m
 +   0:w_4_4_2 =  85.6197f    0:w_4_4_2_= 999.9997m    0:w_4_4_3 = 999.9997m
 +   0:w_4_4_3_=  89.3112f    0:w_4_4_4 = 999.9997m    0:w_4_4_4_=  89.3112f
 +   0:w_4_5_1 = 999.9997m    0:w_4_5_1_=  89.3112f    0:w_4_5_2 =  85.6197f
 +   0:w_4_5_2_= 999.9997m    0:w_4_5_3 = 999.9997m    0:w_4_5_3_=  89.3112f
 +   0:w_4_5_4 =  85.6197f    0:w_4_5_4_= 999.9997m    0:w_4_6_1 =  85.6197f
 +   0:w_4_6_1_= 999.9997m    0:w_4_6_2 =  85.6197f    0:w_4_6_2_= 999.9997m
 +   0:w_4_6_3 = 999.9997m    0:w_4_6_3_=  89.3112f    0:w_4_6_4 =  85.6197f
 +   0:w_4_6_4_= 999.9997m    0:w_4_7_1 = 999.9997m    0:w_4_7_1_=  89.3112f
 +   0:w_4_7_2 =  85.6197f    0:w_4_7_2_= 999.9997m    0:w_4_7_3 =  85.6197f
 +   0:w_4_7_3_= 999.9997m    0:w_4_7_4 =  85.6197f    0:w_4_7_4_= 999.9997m
 +   0:w_4_8_1 =  85.6197f    0:w_4_8_1_= 999.9997m    0:w_4_8_2 =  85.6197f
 +   0:w_4_8_2_= 999.9997m    0:w_4_8_3 =  85.6197f    0:w_4_8_3_= 999.9997m
 +   0:w_4_8_4 =  85.6197f    0:w_4_8_4_= 999.9997m    0:w_4_9_1 = 999.9997m
 +   0:w_4_9_1_=  89.3112f    0:w_4_9_2 = 999.9997m    0:w_4_9_2_=  89.3112f
 +   0:w_4_9_3 = 999.9997m    0:w_4_9_3_=  89.3112f    0:w_4_9_4 = 999.9997m
 +   0:w_4_9_4_=  89.3112f    0:wl_1_1  =   0.         0:wl_1_2  =   0.     
 +   0:wl_1_3  =   0.         0:wl_1_4  =   0.         0:wl_2_1  =   0.     
 +   0:wl_2_2  =   0.         0:wl_2_3  =   0.         0:wl_2_4  =   0.     
 +   0:wl_3_1  =   0.         0:wl_3_2  =   0.         0:wl_3_3  =   0.     
 +   0:wl_3_4  =   0.         0:wl_4_1  =   0.         0:wl_4_2  =   0.     
 +   0:wl_4_3  =   0.         0:wl_4_4  =   0.         2:in_b    = 699.9971m
 +   4:in_b    = 699.9971m    6:in_b    = 699.9971m    8:in_b    = 699.9971m
 +  10:in_b    = 699.9971m   12:in_b    = 699.9971m   14:in_b    = 699.9971m
 +  16:in_b    = 699.9971m   18:in_b    = 699.9971m   20:in_b    = 699.9971m
 +  22:in_b    = 699.9971m   24:in_b    = 699.9971m   26:in_b    = 699.9971m
 +  28:in_b    = 699.9971m   30:in_b    = 699.9971m   32:in_b    = 699.9971m
 +  34:in_b    = 699.9971m   36:in_b    = 699.9971m   38:in_b    = 699.9971m
 +  40:in_b    = 699.9971m   42:in_b    = 699.9971m   44:in_b    = 699.9971m
 +  46:in_b    = 699.9971m   48:in_b    = 699.9971m   50:in_b    = 699.9971m
 +  52:in_b    = 699.9971m   54:in_b    = 699.9971m   56:in_b    = 699.9971m
 +  58:in_b    = 699.9971m   60:in_b    = 699.9971m   62:in_b    = 699.9971m
 +  64:in_b    = 699.9971m   66:in_b    = 699.9971m   68:in_b    = 699.9971m
 +  70:in_b    = 699.9971m   72:in_b    = 699.9971m   74:in_b    = 699.9971m
 +  76:in_b    = 699.9971m   78:in_b    = 699.9971m   80:in_b    = 699.9971m
 +  82:in_b    = 699.9971m   84:in_b    = 699.9971m   86:in_b    = 699.9971m
 +  88:in_b    = 699.9971m   90:in_b    = 699.9971m   92:in_b    = 699.9971m
 +  94:in_b    = 699.9971m   96:in_b    = 699.9971m   98:in_b    = 699.9971m
 + 100:in_b    = 699.9971m  102:in_b    = 699.9971m  104:in_b    = 699.9971m
 + 106:in_b    = 699.9971m  108:in_b    = 699.9971m  110:in_b    = 699.9971m
 + 112:in_b    = 699.9971m  114:in_b    = 699.9971m  116:in_b    = 699.9971m
 + 118:in_b    = 699.9971m  120:in_b    = 699.9971m  122:in_b    = 699.9971m
 + 124:in_b    = 699.9971m  126:in_b    = 699.9971m  128:in_b    = 699.9971m
 + 130:in_b    = 699.9971m  132:in_b    = 699.9971m  134:in_b    = 699.9971m
 + 136:in_b    = 699.9971m  138:in_b    = 699.9971m  140:in_b    = 699.9971m
 + 142:in_b    = 699.9971m  144:in_b    = 699.9971m  146:in_b    = 699.9971m
 + 148:in_b    = 699.9971m  150:in_b    = 699.9971m  152:in_b    = 699.9971m
 + 154:in_b    = 699.9971m  156:in_b    = 699.9971m  158:in_b    = 699.9971m
 + 160:in_b    = 699.9971m  162:in_b    = 699.9971m  164:in_b    = 699.9971m
 + 166:in_b    = 699.9971m  168:in_b    = 699.9971m  170:in_b    = 699.9971m
 + 172:in_b    = 699.9971m  174:in_b    = 699.9971m  176:in_b    = 699.9971m
 + 178:in_b    = 699.9971m  180:in_b    = 699.9971m  182:in_b    = 699.9971m
 + 184:in_b    = 699.9971m  186:in_b    = 699.9971m  188:in_b    = 699.9971m
 + 190:in_b    = 699.9971m  192:in_b    = 699.9971m  194:in_b    = 699.9971m
 + 196:in_b    = 699.9971m  198:in_b    = 699.9971m  200:in_b    = 699.9971m
 + 202:in_b    = 699.9971m  204:in_b    = 699.9971m  206:in_b    = 699.9971m
 + 208:in_b    = 699.9971m  210:in_b    = 699.9971m  212:in_b    = 699.9971m
 + 214:in_b    = 699.9971m  216:in_b    = 699.9971m  218:in_b    = 699.9971m
 + 220:in_b    = 699.9971m  222:in_b    = 699.9971m  224:in_b    = 699.9971m
 + 226:in_b    = 699.9971m  228:in_b    = 699.9971m  230:in_b    = 699.9971m
 + 232:in_b    = 699.9971m  234:in_b    = 699.9971m  236:in_b    = 699.9971m
 + 238:in_b    = 699.9971m  240:in_b    = 699.9971m  242:in_b    = 699.9971m
 + 244:in_b    = 699.9971m  246:in_b    = 699.9971m  248:in_b    = 699.9971m
 + 250:in_b    = 699.9971m  252:in_b    = 699.9971m  254:in_b    = 699.9971m
 + 256:in_b    = 699.9971m 1026:n1      = 699.9969m 1028:n1      = 699.9969m
 +1030:n1      = 699.9969m 1032:n1      = 699.9969m 1034:n1      = 699.9969m
 +1036:n1      = 699.9969m 1038:n1      = 699.9969m 1040:n1      = 699.9969m
 +1042:n1      =  62.8593u 1044:n1      =  62.8593u 1046:n1      =  62.8593u
 +1048:n1      =  62.8593u 1050:n1      =  62.8594u 1052:n1      = 699.9969m
 +1054:n1      =  62.8594u 1056:n1      = 699.9969m 1058:n1      =  62.8594u
 +1060:n1      =  62.8594u 1062:n1      = 699.9969m 1064:n1      =  62.8594u
 +1066:n1      =  62.8594u 1068:n1      =  62.8594u 1070:n1      = 699.9969m
 +1072:n1      =  62.8594u 1074:n1      =  62.8594u 1076:n1      = 699.9969m
 +1078:n1      = 699.9969m 1080:n1      = 699.9969m 1082:n1      = 699.9969m
 +1084:n1      = 699.9969m 1086:n1      =  62.8594u 1088:n1      =  62.8594u
 +1090:n1      = 699.9969m 1092:n1      = 699.9969m 1094:n1      =  62.8594u
 +1096:n1      = 699.9969m 1098:n1      = 699.9969m 1100:n1      =  62.8594u
 +1102:n1      =  62.8594u 1104:n1      = 699.9969m 1106:n1      = 699.9969m
 +1108:n1      = 699.9969m 1110:n1      =  62.8594u 1112:n1      = 699.9969m
 +1114:n1      = 699.9969m 1116:n1      = 699.9969m 1118:n1      = 699.9969m
 +1120:n1      = 699.9969m 1122:n1      = 699.9969m 1124:n1      =  62.8594u
 +1126:n1      =  62.8594u 1128:n1      =  62.8594u 1130:n1      = 699.9969m
 +1132:n1      =  62.8594u 1134:n1      =  62.8594u 1136:n1      = 699.9969m
 +1138:n1      =  62.8593u 1140:n1      =  62.8593u 1142:n1      =  62.8593u
 +1144:n1      =  62.8593u 1146:n1      = 699.9969m 1148:n1      =  62.8594u
 +1150:n1      =  62.8594u 1152:n1      =  62.8594u 1154:n1      = 699.9969m
 +1156:n1      =  62.8594u 1158:n1      =  62.8594u 1160:n1      = 699.9969m
 +1162:n1      = 699.9969m 1164:n1      = 699.9969m 1166:n1      = 699.9969m
 +1168:n1      =  62.8594u 1170:n1      = 699.9969m 1172:n1      = 699.9969m
 +1174:n1      = 699.9969m 1176:n1      = 699.9969m 1178:n1      =  62.8594u
 +1180:n1      =  62.8594u 1182:n1      = 699.9969m 1184:n1      =  62.8594u
 +1186:n1      = 699.9969m 1188:n1      = 699.9969m 1190:n1      = 699.9969m
 +1192:n1      = 699.9969m 1194:n1      =  62.8594u 1196:n1      = 699.9969m
 +1198:n1      = 699.9969m 1200:n1      =  62.8594u 1202:n1      = 699.9969m
 +1204:n1      =  62.8594u 1206:n1      = 699.9969m 1208:n1      = 699.9969m
 +1210:n1      =  62.8594u 1212:n1      = 699.9969m 1214:n1      =  62.8594u
 +1216:n1      = 699.9969m 1218:n1      = 699.9969m 1220:n1      = 699.9969m
 +1222:n1      = 699.9969m 1224:n1      = 699.9969m 1226:n1      = 699.9969m
 +1228:n1      =  62.8594u 1230:n1      = 699.9969m 1232:n1      =  62.8594u
 +1234:n1      = 699.9969m 1236:n1      = 699.9969m 1238:n1      = 699.9969m
 +1240:n1      =  62.8594u 1242:n1      =  62.8594u 1244:n1      =  62.8594u
 +1246:n1      = 699.9969m 1248:n1      = 699.9969m 1250:n1      =  62.8594u
 +1252:n1      = 699.9969m 1254:n1      = 699.9969m 1256:n1      =  62.8594u
 +1258:n1      =  62.8594u 1260:n1      =  62.8594u 1262:n1      = 699.9969m
 +1264:n1      =  62.8594u 1266:n1      = 699.9969m 1268:n1      = 699.9969m
 +1270:n1      = 699.9969m 1272:n1      =  62.8594u 1274:n1      =  62.8594u
 +1276:n1      = 699.9969m 1278:n1      = 699.9969m 1280:n1      = 699.9969m
 +1282:n1      = 699.9969m 1284:n1      =  62.8594u 1286:n1      = 699.9969m
 +1288:n1      = 699.9969m 1290:n1      = 699.9969m 1292:n1      =  62.8594u
 +1294:n1      =  62.8594u 1296:n1      =  62.8594u 1298:n1      =  62.8594u
 +1300:n1      =  62.8594u 1302:n1      = 699.9969m 1304:n1      =  62.8594u
 +1306:n1      =  62.8594u 1308:n1      =  62.8594u 1310:n1      =  62.8594u
 +1312:n1      = 699.9969m 1314:n1      =  62.8594u 1316:n1      = 699.9969m
 +1318:n1      =  62.8594u 1320:n1      = 699.9969m 1322:n1      =  62.8594u
 +1324:n1      =  62.8594u 1326:n1      =  62.8594u 1328:n1      = 699.9969m
 +1330:n1      = 699.9969m 1332:n1      =  62.8594u 1334:n1      =  62.8594u
 +1336:n1      =  62.8594u 1338:n1      = 699.9969m 1340:n1      =  62.8594u
 +1342:n1      =  62.8594u 1344:n1      = 699.9969m 1346:n1      =  62.8594u
 +1348:n1      = 699.9969m 1350:n1      =  62.8594u 1352:n1      = 699.9969m
 +1354:n1      =  62.8593u 1356:n1      =  62.8593u 1358:n1      =  62.8593u
 +1360:n1      =  62.8593u 1362:n1      =  62.8594u 1364:n1      =  62.8594u
 +1366:n1      = 699.9969m 1368:n1      =  62.8594u 1370:n1      =  62.8593u
 +1372:n1      =  62.8593u 1374:n1      =  62.8593u 1376:n1      =  62.8593u
 +1378:n1      =  62.8594u 1380:n1      =  62.8594u 1382:n1      = 699.9969m
 +1384:n1      = 699.9969m 1386:n1      =  62.8594u 1388:n1      =  62.8594u
 +1390:n1      = 699.9969m 1392:n1      =  62.8594u 1394:n1      =  62.8594u
 +1396:n1      =  62.8594u 1398:n1      = 699.9969m 1400:n1      = 699.9969m
 +1402:n1      =  62.8594u 1404:n1      = 699.9969m 1406:n1      =  62.8594u
 +1408:n1      = 699.9969m 1410:n1      =  62.8594u 1412:n1      = 699.9969m
 +1414:n1      = 699.9969m 1416:n1      =  62.8594u 1418:n1      =  62.8594u
 +1420:n1      = 699.9969m 1422:n1      =  62.8594u 1424:n1      =  62.8594u
 +1426:n1      = 699.9969m 1428:n1      = 699.9969m 1430:n1      =  62.8594u
 +1432:n1      = 699.9969m 1434:n1      = 699.9969m 1436:n1      = 699.9969m
 +1438:n1      =  62.8594u 1440:n1      = 699.9969m 1442:n1      =  62.8594u
 +1444:n1      = 699.9969m 1446:n1      =  62.8594u 1448:n1      = 699.9969m
 +1450:n1      =  62.8593u 1452:n1      =  62.8593u 1454:n1      =  62.8593u
 +1456:n1      =  62.8593u 1458:n1      =  62.8594u 1460:n1      = 699.9969m
 +1462:n1      = 699.9969m 1464:n1      =  62.8594u 1466:n1      =  62.8594u
 +1468:n1      =  62.8594u 1470:n1      = 699.9969m 1472:n1      = 699.9969m
 +1474:n1      = 699.9969m 1476:n1      =  62.8594u 1478:n1      =  62.8594u
 +1480:n1      =  62.8594u 1482:n1      = 699.9969m 1484:n1      =  62.8594u
 +1486:n1      = 699.9969m 1488:n1      = 699.9969m 1490:n1      = 699.9969m
 +1492:n1      = 699.9969m 1494:n1      =  62.8594u 1496:n1      = 699.9969m
 +1498:n1      =  62.8594u 1500:n1      =  62.8594u 1502:n1      =  62.8594u
 +1504:n1      = 699.9969m 1506:n1      =  62.8594u 1508:n1      = 699.9969m
 +1510:n1      =  62.8594u 1512:n1      =  62.8594u 1514:n1      = 699.9969m
 +1516:n1      =  62.8594u 1518:n1      = 699.9969m 1520:n1      =  62.8594u
 +1522:n1      = 699.9969m 1524:n1      =  62.8594u 1526:n1      = 699.9969m
 +1528:n1      =  62.8594u 1530:n1      =  62.8594u 1532:n1      = 699.9969m
 +1534:n1      =  62.8594u 1536:n1      = 699.9969m 1538:n1      = 699.9969m
 +1540:n1      =  62.8594u 1542:n1      =  62.8594u 1544:n1      = 699.9969m
 +1546:n1      =  62.8594u 1548:n1      = 699.9969m 1550:n1      = 699.9969m
 +1552:n1      =  62.8594u 1554:n1      =  62.8594u 1556:n1      = 699.9969m
 +1558:n1      =  62.8594u 1560:n1      =  62.8594u 1562:n1      = 699.9969m
 +1564:n1      =  62.8594u 1566:n1      = 699.9969m 1568:n1      =  62.8594u
 +1570:n1      = 699.9969m 1572:n1      =  62.8594u 1574:n1      =  62.8594u
 +1576:n1      = 699.9969m 1578:n1      = 699.9969m 1580:n1      =  62.8594u
 +1582:n1      = 699.9969m 1584:n1      =  62.8594u 1586:n1      =  62.8594u
 +1588:n1      =  62.8594u 1590:n1      =  62.8594u 1592:n1      = 699.9969m
 +1594:n1      =  62.8593u 1596:n1      =  62.8593u 1598:n1      =  62.8593u
 +1600:n1      =  62.8593u 1602:n1      = 699.9969m 1604:n1      = 699.9969m
 +1606:n1      = 699.9969m 1608:n1      = 699.9969m 1610:n1      = 699.9969m
 +1612:n1      =  62.8594u 1614:n1      = 699.9969m 1616:n1      = 699.9969m
 +1618:n1      =  62.8594u 1620:n1      =  62.8594u 1622:n1      = 699.9969m
 +1624:n1      = 699.9969m 1626:n1      = 699.9969m 1628:n1      = 699.9969m
 +1630:n1      =  62.8594u 1632:n1      =  62.8594u 1634:n1      = 699.9969m
 +1636:n1      = 699.9969m 1638:n1      = 699.9969m 1640:n1      =  62.8594u
 +1642:n1      =  62.8593u 1644:n1      =  62.8593u 1646:n1      =  62.8593u
 +1648:n1      =  62.8593u 1650:n1      =  62.8594u 1652:n1      = 699.9969m
 +1654:n1      = 699.9969m 1656:n1      =  62.8594u 1658:n1      =  62.8593u
 +1660:n1      =  62.8593u 1662:n1      =  62.8593u 1664:n1      =  62.8593u
 +1666:n1      = 699.9969m 1668:n1      = 699.9969m 1670:n1      = 699.9969m
 +1672:n1      = 699.9969m 1674:n1      = 699.9969m 1676:n1      =  62.8594u
 +1678:n1      =  62.8594u 1680:n1      = 699.9969m 1682:n1      = 699.9969m
 +1684:n1      =  62.8594u 1686:n1      =  62.8594u 1688:n1      =  62.8594u
 +1690:n1      = 699.9969m 1692:n1      = 699.9969m 1694:n1      =  62.8594u
 +1696:n1      = 699.9969m 1698:n1      = 699.9969m 1700:n1      = 699.9969m
 +1702:n1      = 699.9969m 1704:n1      =  62.8594u 1706:n1      =  62.8594u
 +1708:n1      = 699.9969m 1710:n1      =  62.8594u 1712:n1      = 699.9969m
 +1714:n1      =  62.8594u 1716:n1      =  62.8594u 1718:n1      =  62.8594u
 +1720:n1      = 699.9969m 1722:n1      = 699.9969m 1724:n1      = 699.9969m
 +1726:n1      = 699.9969m 1728:n1      =  62.8594u 1730:n1      = 699.9969m
 +1732:n1      = 699.9969m 1734:n1      = 699.9969m 1736:n1      =  62.8594u
 +1738:n1      = 699.9969m 1740:n1      = 699.9969m 1742:n1      = 699.9969m
 +1744:n1      =  62.8594u 1746:n1      = 699.9969m 1748:n1      = 699.9969m
 +1750:n1      = 699.9969m 1752:n1      =  62.8594u 1754:n1      = 699.9969m
 +1756:n1      =  62.8594u 1758:n1      =  62.8594u 1760:n1      =  62.8594u
 +1762:n1      =  62.8593u 1764:n1      =  62.8593u 1766:n1      =  62.8593u
 +1768:n1      =  62.8593u 1770:n1      =  62.8594u 1772:n1      =  62.8594u
 +1774:n1      = 699.9969m 1776:n1      =  62.8594u 1778:n1      = 699.9969m
 +1780:n1      =  62.8594u 1782:n1      =  62.8594u 1784:n1      = 699.9969m
 +1786:n1      =  62.8594u 1788:n1      =  62.8594u 1790:n1      = 699.9969m
 +1792:n1      = 699.9969m 1794:n1      =  62.8594u 1796:n1      = 699.9969m
 +1798:n1      =  62.8594u 1800:n1      = 699.9969m 1802:n1      = 699.9969m
 +1804:n1      = 699.9969m 1806:n1      =  62.8594u 1808:n1      = 699.9969m
 +1810:n1      =  62.8594u 1812:n1      =  62.8594u 1814:n1      = 699.9969m
 +1816:n1      =  62.8594u 1818:n1      =  62.8594u 1820:n1      =  62.8594u
 +1822:n1      = 699.9969m 1824:n1      = 699.9969m 1826:n1      = 699.9969m
 +1828:n1      =  62.8594u 1830:n1      = 699.9969m 1832:n1      =  62.8594u
 +1834:n1      =  62.8594u 1836:n1      =  62.8594u 1838:n1      = 699.9969m
 +1840:n1      =  62.8594u 1842:n1      = 699.9969m 1844:n1      =  62.8594u
 +1846:n1      =  62.8594u 1848:n1      =  62.8594u 1850:n1      =  62.8593u
 +1852:n1      =  62.8593u 1854:n1      =  62.8593u 1856:n1      =  62.8593u
 +1858:n1      = 699.9969m 1860:n1      = 699.9969m 1862:n1      = 699.9969m
 +1864:n1      = 699.9969m 1866:n1      =  62.8594u 1868:n1      =  62.8594u
 +1870:n1      = 699.9969m 1872:n1      =  62.8594u 1874:n1      = 699.9969m
 +1876:n1      =  62.8594u 1878:n1      = 699.9969m 1880:n1      = 699.9969m
 +1882:n1      =  62.8594u 1884:n1      =  62.8594u 1886:n1      = 699.9969m
 +1888:n1      = 699.9969m 1890:n1      = 699.9969m 1892:n1      =  62.8594u
 +1894:n1      =  62.8594u 1896:n1      = 699.9969m 1898:n1      =  62.8594u
 +1900:n1      = 699.9969m 1902:n1      =  62.8594u 1904:n1      = 699.9969m
 +1906:n1      = 699.9969m 1908:n1      =  62.8594u 1910:n1      =  62.8594u
 +1912:n1      = 699.9969m 1914:n1      = 699.9969m 1916:n1      =  62.8594u
 +1918:n1      =  62.8594u 1920:n1      = 699.9969m 1922:n1      =  62.8594u
 +1924:n1      = 699.9969m 1926:n1      = 699.9969m 1928:n1      = 699.9969m
 +1930:n1      =  62.8594u 1932:n1      =  62.8594u 1934:n1      =  62.8594u
 +1936:n1      = 699.9969m 1938:n1      =  62.8594u 1940:n1      =  62.8594u
 +1942:n1      = 699.9969m 1944:n1      =  62.8594u 1946:n1      =  62.8593u
 +1948:n1      =  62.8593u 1950:n1      =  62.8593u 1952:n1      =  62.8593u
 +1954:n1      =  62.8593u 1956:n1      =  62.8593u 1958:n1      =  62.8593u
 +1960:n1      =  62.8593u 1962:n1      =  62.8594u 1964:n1      = 699.9969m
 +1966:n1      = 699.9969m 1968:n1      =  62.8594u 1970:n1      = 699.9969m
 +1972:n1      =  62.8594u 1974:n1      =  62.8594u 1976:n1      =  62.8594u
 +1978:n1      =  62.8594u 1980:n1      = 699.9969m 1982:n1      =  62.8594u
 +1984:n1      =  62.8594u 1986:n1      = 699.9969m 1988:n1      =  62.8594u
 +1990:n1      =  62.8594u 1992:n1      =  62.8594u 1994:n1      = 699.9969m
 +1996:n1      =  62.8594u 1998:n1      = 699.9969m 2000:n1      = 699.9969m
 +2002:n1      =  62.8594u 2004:n1      = 699.9969m 2006:n1      = 699.9969m
 +2008:n1      =  62.8594u 2010:n1      = 699.9969m 2012:n1      = 699.9969m
 +2014:n1      =  62.8594u 2016:n1      = 699.9969m 2018:n1      =  62.8594u
 +2020:n1      =  62.8594u 2022:n1      = 699.9969m 2024:n1      = 699.9969m
 +2026:n1      = 699.9969m 2028:n1      =  62.8594u 2030:n1      = 699.9969m
 +2032:n1      =  62.8594u 2034:n1      = 699.9969m 2036:n1      = 699.9969m
 +2038:n1      =  62.8594u 2040:n1      = 699.9969m 2042:n1      = 699.9969m
 +2044:n1      = 699.9969m 2046:n1      =  62.8594u 2048:n1      = 699.9969m


 maximum nodal capacitance=   3.238E-14         on node     0:vdd             

    nodal  capacitance table 

       node    =    cap         node    =    cap         node    =    cap

 +   0:bl      =   5.2339f    0:blb     =   5.2339f    0:i110_buf= 125.9427a
 +   0:i110_inv= 312.0436a    0:i111_buf= 125.9427a    0:i111_inv= 358.7812a
 +   0:i112_buf= 125.9427a    0:i112_inv= 405.5188a    0:i113_buf= 125.9427a
 +   0:i113_inv= 265.3059a    0:i114_buf= 125.9427a    0:i114_inv= 312.0436a
 +   0:i115_buf= 125.9427a    0:i115_inv= 218.5683a    0:i116_buf= 125.9427a
 +   0:i116_inv= 265.3059a    0:i117_buf= 125.9427a    0:i117_inv= 312.0436a
 +   0:i118_buf= 125.9427a    0:i118_inv= 358.7812a    0:i119_buf= 125.9427a
 +   0:i119_inv= 405.5188a    0:i11_buf = 125.9427a    0:i11_inv = 405.5188a
 +   0:i120_buf= 125.9427a    0:i120_inv= 265.3059a    0:i121_buf= 125.9427a
 +   0:i121_inv= 405.5188a    0:i122_buf= 125.9427a    0:i122_inv= 312.0436a
 +   0:i123_buf= 125.9427a    0:i123_inv= 358.7812a    0:i124_buf= 125.9427a
 +   0:i124_inv= 312.0436a    0:i125_buf= 125.9427a    0:i125_inv= 405.5188a
 +   0:i126_buf= 125.9427a    0:i126_inv= 312.0436a    0:i127_buf= 125.9427a
 +   0:i127_inv= 358.7812a    0:i128_buf= 125.9427a    0:i128_inv= 312.0436a
 +   0:i129_buf= 125.9427a    0:i129_inv= 312.0436a    0:i12_buf = 125.9427a
 +   0:i12_inv = 405.5188a    0:i130_buf= 125.9427a    0:i130_inv= 265.3059a
 +   0:i131_buf= 125.9427a    0:i131_inv= 358.7812a    0:i132_buf= 125.9427a
 +   0:i132_inv= 358.7812a    0:i13_buf = 125.9427a    0:i13_inv = 218.5683a
 +   0:i14_buf = 125.9427a    0:i14_inv = 312.0436a    0:i15_buf = 125.9427a
 +   0:i15_inv = 265.3059a    0:i16_buf = 125.9427a    0:i16_inv = 265.3059a
 +   0:i17_buf = 125.9427a    0:i17_inv = 358.7812a    0:i18_buf = 125.9427a
 +   0:i18_inv = 312.0436a    0:i19_buf = 125.9427a    0:i19_inv = 358.7812a
 +   0:i210_buf= 125.9427a    0:i210_inv= 218.5683a    0:i211_buf= 125.9427a
 +   0:i211_inv= 265.3059a    0:i212_buf= 125.9427a    0:i212_inv= 218.5683a
 +   0:i213_buf= 125.9427a    0:i213_inv= 312.0436a    0:i214_buf= 125.9427a
 +   0:i214_inv= 265.3059a    0:i215_buf= 125.9427a    0:i215_inv= 312.0436a
 +   0:i216_buf= 125.9427a    0:i216_inv= 312.0436a    0:i217_buf= 125.9427a
 +   0:i217_inv= 312.0436a    0:i218_buf= 125.9427a    0:i218_inv= 265.3059a
 +   0:i219_buf= 125.9427a    0:i219_inv= 358.7812a    0:i21_buf = 125.9427a
 +   0:i21_inv = 358.7812a    0:i220_buf= 125.9427a    0:i220_inv= 358.7812a
 +   0:i221_buf= 125.9427a    0:i221_inv= 312.0436a    0:i222_buf= 125.9427a
 +   0:i222_inv= 218.5683a    0:i223_buf= 125.9427a    0:i223_inv= 312.0436a
 +   0:i224_buf= 125.9427a    0:i224_inv= 312.0436a    0:i225_buf= 125.9427a
 +   0:i225_inv= 265.3059a    0:i226_buf= 125.9427a    0:i226_inv= 358.7812a
 +   0:i227_buf= 125.9427a    0:i227_inv= 358.7812a    0:i228_buf= 125.9427a
 +   0:i228_inv= 265.3059a    0:i229_buf= 125.9427a    0:i229_inv= 265.3059a
 +   0:i22_buf = 125.9427a    0:i22_inv = 265.3059a    0:i230_buf= 125.9427a
 +   0:i230_inv= 312.0436a    0:i231_buf= 125.9427a    0:i231_inv= 312.0436a
 +   0:i232_buf= 125.9427a    0:i232_inv= 312.0436a    0:i23_buf = 125.9427a
 +   0:i23_inv = 265.3059a    0:i24_buf = 125.9427a    0:i24_inv = 265.3059a
 +   0:i25_buf = 125.9427a    0:i25_inv = 312.0436a    0:i26_buf = 125.9427a
 +   0:i26_inv = 265.3059a    0:i27_buf = 125.9427a    0:i27_inv = 265.3059a
 +   0:i28_buf = 125.9427a    0:i28_inv = 312.0436a    0:i29_buf = 125.9427a
 +   0:i29_inv = 312.0436a    0:i310_buf= 125.9427a    0:i310_inv= 358.7812a
 +   0:i311_buf= 125.9427a    0:i311_inv= 312.0436a    0:i312_buf= 125.9427a
 +   0:i312_inv= 312.0436a    0:i313_buf= 125.9427a    0:i313_inv= 358.7812a
 +   0:i314_buf= 125.9427a    0:i314_inv= 218.5683a    0:i315_buf= 125.9427a
 +   0:i315_inv= 312.0436a    0:i316_buf= 125.9427a    0:i316_inv= 218.5683a
 +   0:i317_buf= 125.9427a    0:i317_inv= 405.5188a    0:i318_buf= 125.9427a
 +   0:i318_inv= 312.0436a    0:i319_buf= 125.9427a    0:i319_inv= 265.3059a
 +   0:i31_buf = 125.9427a    0:i31_inv = 312.0436a    0:i320_buf= 125.9427a
 +   0:i320_inv= 358.7812a    0:i321_buf= 125.9427a    0:i321_inv= 358.7812a
 +   0:i322_buf= 125.9427a    0:i322_inv= 312.0436a    0:i323_buf= 125.9427a
 +   0:i323_inv= 265.3059a    0:i324_buf= 125.9427a    0:i324_inv= 358.7812a
 +   0:i325_buf= 125.9427a    0:i325_inv= 358.7812a    0:i326_buf= 125.9427a
 +   0:i326_inv= 358.7812a    0:i327_buf= 125.9427a    0:i327_inv= 358.7812a
 +   0:i328_buf= 125.9427a    0:i328_inv= 265.3059a    0:i329_buf= 125.9427a
 +   0:i329_inv= 218.5683a    0:i32_buf = 125.9427a    0:i32_inv = 312.0436a
 +   0:i330_buf= 125.9427a    0:i330_inv= 265.3059a    0:i331_buf= 125.9427a
 +   0:i331_inv= 312.0436a    0:i332_buf= 125.9427a    0:i332_inv= 312.0436a
 +   0:i33_buf = 125.9427a    0:i33_inv = 265.3059a    0:i34_buf = 125.9427a
 +   0:i34_inv = 312.0436a    0:i35_buf = 125.9427a    0:i35_inv = 312.0436a
 +   0:i36_buf = 125.9427a    0:i36_inv = 312.0436a    0:i37_buf = 125.9427a
 +   0:i37_inv = 265.3059a    0:i38_buf = 125.9427a    0:i38_inv = 218.5683a
 +   0:i39_buf = 125.9427a    0:i39_inv = 405.5188a    0:i410_buf= 125.9427a
 +   0:i410_inv= 265.3059a    0:i411_buf= 125.9427a    0:i411_inv= 358.7812a
 +   0:i412_buf= 125.9427a    0:i412_inv= 312.0436a    0:i413_buf= 125.9427a
 +   0:i413_inv= 312.0436a    0:i414_buf= 125.9427a    0:i414_inv= 312.0436a
 +   0:i415_buf= 125.9427a    0:i415_inv= 312.0436a    0:i416_buf= 125.9427a
 +   0:i416_inv= 312.0436a    0:i417_buf= 125.9427a    0:i417_inv= 358.7812a
 +   0:i418_buf= 125.9427a    0:i418_inv= 265.3059a    0:i419_buf= 125.9427a
 +   0:i419_inv= 265.3059a    0:i41_buf = 125.9427a    0:i41_inv = 312.0436a
 +   0:i420_buf= 125.9427a    0:i420_inv= 218.5683a    0:i421_buf= 125.9427a
 +   0:i421_inv= 218.5683a    0:i422_buf= 125.9427a    0:i422_inv= 312.0436a
 +   0:i423_buf= 125.9427a    0:i423_inv= 265.3059a    0:i424_buf= 125.9427a
 +   0:i424_inv= 265.3059a    0:i425_buf= 125.9427a    0:i425_inv= 265.3059a
 +   0:i426_buf= 125.9427a    0:i426_inv= 358.7812a    0:i427_buf= 125.9427a
 +   0:i427_inv= 312.0436a    0:i428_buf= 125.9427a    0:i428_inv= 358.7812a
 +   0:i429_buf= 125.9427a    0:i429_inv= 312.0436a    0:i42_buf = 125.9427a
 +   0:i42_inv = 358.7812a    0:i430_buf= 125.9427a    0:i430_inv= 312.0436a
 +   0:i431_buf= 125.9427a    0:i431_inv= 358.7812a    0:i432_buf= 125.9427a
 +   0:i432_inv= 358.7812a    0:i43_buf = 125.9427a    0:i43_inv = 265.3059a
 +   0:i44_buf = 125.9427a    0:i44_inv = 312.0436a    0:i45_buf = 125.9427a
 +   0:i45_inv = 312.0436a    0:i46_buf = 125.9427a    0:i46_inv = 265.3059a
 +   0:i47_buf = 125.9427a    0:i47_inv = 265.3059a    0:i48_buf = 125.9427a
 +   0:i48_inv = 218.5683a    0:i49_buf = 125.9427a    0:i49_inv = 405.5188a
 +   0:inm[0]  =  98.8604a    0:inm[100]=  98.8604a    0:inm[101]=  98.8604a
 +   0:inm[102]=  98.8604a    0:inm[103]=  98.8604a    0:inm[104]=  98.8604a
 +   0:inm[105]=  98.8604a    0:inm[106]=  98.8604a    0:inm[107]=  98.8604a
 +   0:inm[108]=  98.8604a    0:inm[109]=  98.8604a    0:inm[10] =  98.8604a
 +   0:inm[110]=  98.8604a    0:inm[111]=  98.8604a    0:inm[112]=  98.8604a
 +   0:inm[113]=  98.8604a    0:inm[114]=  98.8604a    0:inm[115]=  98.8604a
 +   0:inm[116]=  98.8604a    0:inm[117]=  98.8604a    0:inm[118]=  98.8604a
 +   0:inm[119]=  98.8604a    0:inm[11] =  98.8604a    0:inm[120]=  98.8604a
 +   0:inm[121]=  98.8604a    0:inm[122]=  98.8604a    0:inm[123]=  98.8604a
 +   0:inm[124]=  98.8604a    0:inm[125]=  98.8604a    0:inm[126]=  98.8604a
 +   0:inm[127]=  98.8604a    0:inm[12] =  98.8604a    0:inm[13] =  98.8604a
 +   0:inm[14] =  98.8604a    0:inm[15] =  98.8604a    0:inm[16] =  98.8604a
 +   0:inm[17] =  98.8604a    0:inm[18] =  98.8604a    0:inm[19] =  98.8604a
 +   0:inm[1]  =  98.8604a    0:inm[20] =  98.8604a    0:inm[21] =  98.8604a
 +   0:inm[22] =  98.8604a    0:inm[23] =  98.8604a    0:inm[24] =  98.8604a
 +   0:inm[25] =  98.8604a    0:inm[26] =  98.8604a    0:inm[27] =  98.8604a
 +   0:inm[28] =  98.8604a    0:inm[29] =  98.8604a    0:inm[2]  =  98.8604a
 +   0:inm[30] =  98.8604a    0:inm[31] =  98.8604a    0:inm[32] =  98.8604a
 +   0:inm[33] =  98.8604a    0:inm[34] =  98.8604a    0:inm[35] =  98.8604a
 +   0:inm[36] =  98.8604a    0:inm[37] =  98.8604a    0:inm[38] =  98.8604a
 +   0:inm[39] =  98.8604a    0:inm[3]  =  98.8604a    0:inm[40] =  98.8604a
 +   0:inm[41] =  98.8604a    0:inm[42] =  98.8604a    0:inm[43] =  98.8604a
 +   0:inm[44] =  98.8604a    0:inm[45] =  98.8604a    0:inm[46] =  98.8604a
 +   0:inm[47] =  98.8604a    0:inm[48] =  98.8604a    0:inm[49] =  98.8604a
 +   0:inm[4]  =  98.8604a    0:inm[50] =  98.8604a    0:inm[51] =  98.8604a
 +   0:inm[52] =  98.8604a    0:inm[53] =  98.8604a    0:inm[54] =  98.8604a
 +   0:inm[55] =  98.8604a    0:inm[56] =  98.8604a    0:inm[57] =  98.8604a
 +   0:inm[58] =  98.8604a    0:inm[59] =  98.8604a    0:inm[5]  =  98.8604a
 +   0:inm[60] =  98.8604a    0:inm[61] =  98.8604a    0:inm[62] =  98.8604a
 +   0:inm[63] =  98.8604a    0:inm[64] =  98.8604a    0:inm[65] =  98.8604a
 +   0:inm[66] =  98.8604a    0:inm[67] =  98.8604a    0:inm[68] =  98.8604a
 +   0:inm[69] =  98.8604a    0:inm[6]  =  98.8604a    0:inm[70] =  98.8604a
 +   0:inm[71] =  98.8604a    0:inm[72] =  98.8604a    0:inm[73] =  98.8604a
 +   0:inm[74] =  98.8604a    0:inm[75] =  98.8604a    0:inm[76] =  98.8604a
 +   0:inm[77] =  98.8604a    0:inm[78] =  98.8604a    0:inm[79] =  98.8604a
 +   0:inm[7]  =  98.8604a    0:inm[80] =  98.8604a    0:inm[81] =  98.8604a
 +   0:inm[82] =  98.8604a    0:inm[83] =  98.8604a    0:inm[84] =  98.8604a
 +   0:inm[85] =  98.8604a    0:inm[86] =  98.8604a    0:inm[87] =  98.8604a
 +   0:inm[88] =  98.8604a    0:inm[89] =  98.8604a    0:inm[8]  =  98.8604a
 +   0:inm[90] =  98.8604a    0:inm[91] =  98.8604a    0:inm[92] =  98.8604a
 +   0:inm[93] =  98.8604a    0:inm[94] =  98.8604a    0:inm[95] =  98.8604a
 +   0:inm[96] =  98.8604a    0:inm[97] =  98.8604a    0:inm[98] =  98.8604a
 +   0:inm[99] =  98.8604a    0:inm[9]  =  98.8604a    0:o_1_10_1=  49.4219a
 +   0:o_1_10_2=  50.2759a    0:o_1_10_3=  50.2759a    0:o_1_10_4=  49.4219a
 +   0:o_1_11_1=  49.4219a    0:o_1_11_2=  49.4219a    0:o_1_11_3=  50.2759a
 +   0:o_1_11_4=  49.4219a    0:o_1_12_1=  49.4219a    0:o_1_12_2=  49.4219a
 +   0:o_1_12_3=  49.4219a    0:o_1_12_4=  49.4219a    0:o_1_13_1=  49.4219a
 +   0:o_1_13_2=  50.2759a    0:o_1_13_3=  50.2759a    0:o_1_13_4=  50.2759a
 +   0:o_1_14_1=  49.4219a    0:o_1_14_2=  50.2759a    0:o_1_14_3=  50.2759a
 +   0:o_1_14_4=  49.4219a    0:o_1_15_1=  50.2759a    0:o_1_15_2=  50.2759a
 +   0:o_1_15_3=  50.2759a    0:o_1_15_4=  50.2759a    0:o_1_16_1=  49.4219a
 +   0:o_1_16_2=  50.2759a    0:o_1_16_3=  50.2759a    0:o_1_16_4=  50.2759a
 +   0:o_1_17_1=  49.4219a    0:o_1_17_2=  50.2759a    0:o_1_17_3=  50.2759a
 +   0:o_1_17_4=  49.4219a    0:o_1_18_1=  49.4219a    0:o_1_18_2=  49.4219a
 +   0:o_1_18_3=  49.4219a    0:o_1_18_4=  50.2759a    0:o_1_19_1=  49.4219a
 +   0:o_1_19_2=  49.4219a    0:o_1_19_3=  49.4219a    0:o_1_19_4=  49.4219a
 +   0:o_1_1_1 =  49.4219a    0:o_1_1_2 =  49.4219a    0:o_1_1_3 =  49.4219a
 +   0:o_1_1_4 =  49.4219a    0:o_1_20_1=  50.2759a    0:o_1_20_2=  50.2759a
 +   0:o_1_20_3=  49.4219a    0:o_1_20_4=  50.2759a    0:o_1_21_1=  49.4219a
 +   0:o_1_21_2=  49.4219a    0:o_1_21_3=  49.4219a    0:o_1_21_4=  49.4219a
 +   0:o_1_22_1=  50.2759a    0:o_1_22_2=  49.4219a    0:o_1_22_3=  49.4219a
 +   0:o_1_22_4=  50.2759a    0:o_1_23_1=  49.4219a    0:o_1_23_2=  50.2759a
 +   0:o_1_23_3=  49.4219a    0:o_1_23_4=  49.4219a    0:o_1_24_1=  50.2759a
 +   0:o_1_24_2=  49.4219a    0:o_1_24_3=  50.2759a    0:o_1_24_4=  49.4219a
 +   0:o_1_25_1=  49.4219a    0:o_1_25_2=  49.4219a    0:o_1_25_3=  49.4219a
 +   0:o_1_25_4=  49.4219a    0:o_1_26_1=  49.4219a    0:o_1_26_2=  50.2759a
[...]
 +   0:w_4_5_1 = 139.8941a    0:w_4_5_1_= 225.0606a    0:w_4_5_2 = 133.1917a
 +   0:w_4_5_2_= 234.3105a    0:w_4_5_3 = 139.8941a    0:w_4_5_3_= 225.0606a
 +   0:w_4_5_4 = 133.1917a    0:w_4_5_4_= 234.3105a    0:w_4_6_1 = 133.1917a
 +   0:w_4_6_1_= 234.3105a    0:w_4_6_2 = 133.1917a    0:w_4_6_2_= 234.3105a
 +   0:w_4_6_3 = 139.8941a    0:w_4_6_3_= 225.0606a    0:w_4_6_4 = 133.1917a
 +   0:w_4_6_4_= 234.3105a    0:w_4_7_1 = 139.8941a    0:w_4_7_1_= 225.0606a
 +   0:w_4_7_2 = 133.1917a    0:w_4_7_2_= 234.3105a    0:w_4_7_3 = 133.1917a
 +   0:w_4_7_3_= 234.3105a    0:w_4_7_4 = 133.1917a    0:w_4_7_4_= 234.3105a
 +   0:w_4_8_1 = 133.1917a    0:w_4_8_1_= 234.3105a    0:w_4_8_2 = 133.1917a
 +   0:w_4_8_2_= 234.3105a    0:w_4_8_3 = 133.1917a    0:w_4_8_3_= 234.3105a
 +   0:w_4_8_4 = 133.1917a    0:w_4_8_4_= 234.3105a    0:w_4_9_1 = 139.8941a
 +   0:w_4_9_1_= 225.0606a    0:w_4_9_2 = 139.8941a    0:w_4_9_2_= 225.0606a
 +   0:w_4_9_3 = 139.8941a    0:w_4_9_3_= 225.0606a    0:w_4_9_4 = 139.8941a
 +   0:w_4_9_4_= 225.0606a    0:wl_1_1  =   1.3085f    0:wl_1_2  =   1.3085f
 +   0:wl_1_3  =   1.3085f    0:wl_1_4  =   1.3085f    0:wl_2_1  =   1.3085f
 +   0:wl_2_2  =   1.3085f    0:wl_2_3  =   1.3085f    0:wl_2_4  =   1.3085f
 +   0:wl_3_1  =   1.3085f    0:wl_3_2  =   1.3085f    0:wl_3_3  =   1.3085f
 +   0:wl_3_4  =   1.3085f    0:wl_4_1  =   1.3085f    0:wl_4_2  =   1.3085f
 +   0:wl_4_3  =   1.3085f    0:wl_4_4  =   1.3085f    2:in_b    = 129.6377a
 +   4:in_b    = 129.6377a    6:in_b    = 129.6377a    8:in_b    = 129.6377a
 +  10:in_b    = 129.6377a   12:in_b    = 129.6377a   14:in_b    = 129.6377a
 +  16:in_b    = 129.6377a   18:in_b    = 129.6377a   20:in_b    = 129.6377a
 +  22:in_b    = 129.6377a   24:in_b    = 129.6377a   26:in_b    = 129.6377a
 +  28:in_b    = 129.6377a   30:in_b    = 129.6377a   32:in_b    = 129.6377a
 +  34:in_b    = 129.6377a   36:in_b    = 129.6377a   38:in_b    = 129.6377a
 +  40:in_b    = 129.6377a   42:in_b    = 129.6377a   44:in_b    = 129.6377a
 +  46:in_b    = 129.6377a   48:in_b    = 129.6377a   50:in_b    = 129.6377a
 +  52:in_b    = 129.6377a   54:in_b    = 129.6377a   56:in_b    = 129.6377a
 +  58:in_b    = 129.6377a   60:in_b    = 129.6377a   62:in_b    = 129.6377a
 +  64:in_b    = 129.6377a   66:in_b    = 129.6377a   68:in_b    = 129.6377a
 +  70:in_b    = 129.6377a   72:in_b    = 129.6377a   74:in_b    = 129.6377a
 +  76:in_b    = 129.6377a   78:in_b    = 129.6377a   80:in_b    = 129.6377a
 +  82:in_b    = 129.6377a   84:in_b    = 129.6377a   86:in_b    = 129.6377a
 +  88:in_b    = 129.6377a   90:in_b    = 129.6377a   92:in_b    = 129.6377a
 +  94:in_b    = 129.6377a   96:in_b    = 129.6377a   98:in_b    = 129.6377a
 + 100:in_b    = 129.6377a  102:in_b    = 129.6377a  104:in_b    = 129.6377a
 + 106:in_b    = 129.6377a  108:in_b    = 129.6377a  110:in_b    = 129.6377a
 + 112:in_b    = 129.6377a  114:in_b    = 129.6377a  116:in_b    = 129.6377a
 + 118:in_b    = 129.6377a  120:in_b    = 129.6377a  122:in_b    = 129.6377a
 + 124:in_b    = 129.6377a  126:in_b    = 129.6377a  128:in_b    = 129.6377a
 + 130:in_b    = 129.6377a  132:in_b    = 129.6377a  134:in_b    = 129.6377a
 + 136:in_b    = 129.6377a  138:in_b    = 129.6377a  140:in_b    = 129.6377a
 + 142:in_b    = 129.6377a  144:in_b    = 129.6377a  146:in_b    = 129.6377a
 + 148:in_b    = 129.6377a  150:in_b    = 129.6377a  152:in_b    = 129.6377a
 + 154:in_b    = 129.6377a  156:in_b    = 129.6377a  158:in_b    = 129.6377a
 + 160:in_b    = 129.6377a  162:in_b    = 129.6377a  164:in_b    = 129.6377a
 + 166:in_b    = 129.6377a  168:in_b    = 129.6377a  170:in_b    = 129.6377a
 + 172:in_b    = 129.6377a  174:in_b    = 129.6377a  176:in_b    = 129.6377a
 + 178:in_b    = 129.6377a  180:in_b    = 129.6377a  182:in_b    = 129.6377a
 + 184:in_b    = 129.6377a  186:in_b    = 129.6377a  188:in_b    = 129.6377a
 + 190:in_b    = 129.6377a  192:in_b    = 129.6377a  194:in_b    = 129.6377a
 + 196:in_b    = 129.6377a  198:in_b    = 129.6377a  200:in_b    = 129.6377a
 + 202:in_b    = 129.6377a  204:in_b    = 129.6377a  206:in_b    = 129.6377a
 + 208:in_b    = 129.6377a  210:in_b    = 129.6377a  212:in_b    = 129.6377a
 + 214:in_b    = 129.6377a  216:in_b    = 129.6377a  218:in_b    = 129.6377a
 + 220:in_b    = 129.6377a  222:in_b    = 129.6377a  224:in_b    = 129.6377a
 + 226:in_b    = 129.6377a  228:in_b    = 129.6377a  230:in_b    = 129.6377a
 + 232:in_b    = 129.6377a  234:in_b    = 129.6377a  236:in_b    = 129.6377a
 + 238:in_b    = 129.6377a  240:in_b    = 129.6377a  242:in_b    = 129.6377a
 + 244:in_b    = 129.6377a  246:in_b    = 129.6377a  248:in_b    = 129.6377a
 + 250:in_b    = 129.6377a  252:in_b    = 129.6377a  254:in_b    = 129.6377a
 + 256:in_b    = 129.6377a 1026:n1      =  53.7240a 1028:n1      =  53.7240a
 +1030:n1      =  53.7240a 1032:n1      =  53.7240a 1034:n1      =  53.7240a
 +1036:n1      =  53.7240a 1038:n1      =  53.7240a 1040:n1      =  53.7240a
 +1042:n1      =  22.5623a 1044:n1      =  22.5623a 1046:n1      =  22.5623a
 +1048:n1      =  22.5623a 1050:n1      =  22.5623a 1052:n1      =  53.7240a
 +1054:n1      =  22.5623a 1056:n1      =  53.7240a 1058:n1      =  22.5623a
 +1060:n1      =  22.5623a 1062:n1      =  53.7240a 1064:n1      =  22.5623a
 +1066:n1      =  22.5623a 1068:n1      =  22.5623a 1070:n1      =  53.7240a
 +1072:n1      =  22.5623a 1074:n1      =  22.5623a 1076:n1      =  53.7240a
 +1078:n1      =  53.7240a 1080:n1      =  53.7240a 1082:n1      =  53.7240a
 +1084:n1      =  53.7240a 1086:n1      =  22.5623a 1088:n1      =  22.5623a
 +1090:n1      =  53.7240a 1092:n1      =  53.7240a 1094:n1      =  22.5623a
 +1096:n1      =  53.7240a 1098:n1      =  53.7240a 1100:n1      =  22.5623a
 +1102:n1      =  22.5623a 1104:n1      =  53.7240a 1106:n1      =  53.7240a
 +1108:n1      =  53.7240a 1110:n1      =  22.5623a 1112:n1      =  53.7240a
 +1114:n1      =  53.7240a 1116:n1      =  53.7240a 1118:n1      =  53.7240a
 +1120:n1      =  53.7240a 1122:n1      =  53.7240a 1124:n1      =  22.5623a
 +1126:n1      =  22.5623a 1128:n1      =  22.5623a 1130:n1      =  53.7240a
 +1132:n1      =  22.5623a 1134:n1      =  22.5623a 1136:n1      =  53.7240a
 +1138:n1      =  22.5623a 1140:n1      =  22.5623a 1142:n1      =  22.5623a
 +1144:n1      =  22.5623a 1146:n1      =  53.7240a 1148:n1      =  22.5623a
 +1150:n1      =  22.5623a 1152:n1      =  22.5623a 1154:n1      =  53.7240a
 +1156:n1      =  22.5623a 1158:n1      =  22.5623a 1160:n1      =  53.7240a
 +1162:n1      =  53.7240a 1164:n1      =  53.7240a 1166:n1      =  53.7240a
 +1168:n1      =  22.5623a 1170:n1      =  53.7240a 1172:n1      =  53.7240a
 +1174:n1      =  53.7240a 1176:n1      =  53.7240a 1178:n1      =  22.5623a
 +1180:n1      =  22.5623a 1182:n1      =  53.7240a 1184:n1      =  22.5623a
 +1186:n1      =  53.7240a 1188:n1      =  53.7240a 1190:n1      =  53.7240a
 +1192:n1      =  53.7240a 1194:n1      =  22.5623a 1196:n1      =  53.7240a
 +1198:n1      =  53.7240a 1200:n1      =  22.5623a 1202:n1      =  53.7240a
 +1204:n1      =  22.5623a 1206:n1      =  53.7240a 1208:n1      =  53.7240a
 +1210:n1      =  22.5623a 1212:n1      =  53.7240a 1214:n1      =  22.5623a
 +1216:n1      =  53.7240a 1218:n1      =  53.7240a 1220:n1      =  53.7240a
 +1222:n1      =  53.7240a 1224:n1      =  53.7240a 1226:n1      =  53.7240a
 +1228:n1      =  22.5623a 1230:n1      =  53.7240a 1232:n1      =  22.5623a
 +1234:n1      =  53.7240a 1236:n1      =  53.7240a 1238:n1      =  53.7240a
 +1240:n1      =  22.5623a 1242:n1      =  22.5623a 1244:n1      =  22.5623a
 +1246:n1      =  53.7240a 1248:n1      =  53.7240a 1250:n1      =  22.5623a
 +1252:n1      =  53.7240a 1254:n1      =  53.7240a 1256:n1      =  22.5623a
 +1258:n1      =  22.5623a 1260:n1      =  22.5623a 1262:n1      =  53.7240a
 +1264:n1      =  22.5623a 1266:n1      =  53.7240a 1268:n1      =  53.7240a
 +1270:n1      =  53.7240a 1272:n1      =  22.5623a 1274:n1      =  22.5623a
 +1276:n1      =  53.7240a 1278:n1      =  53.7240a 1280:n1      =  53.7240a
 +1282:n1      =  53.7240a 1284:n1      =  22.5623a 1286:n1      =  53.7240a
 +1288:n1      =  53.7240a 1290:n1      =  53.7240a 1292:n1      =  22.5623a
 +1294:n1      =  22.5623a 1296:n1      =  22.5623a 1298:n1      =  22.5623a
 +1300:n1      =  22.5623a 1302:n1      =  53.7240a 1304:n1      =  22.5623a
 +1306:n1      =  22.5623a 1308:n1      =  22.5623a 1310:n1      =  22.5623a
 +1312:n1      =  53.7240a 1314:n1      =  22.5623a 1316:n1      =  53.7240a
 +1318:n1      =  22.5623a 1320:n1      =  53.7240a 1322:n1      =  22.5623a
 +1324:n1      =  22.5623a 1326:n1      =  22.5623a 1328:n1      =  53.7240a
 +1330:n1      =  53.7240a 1332:n1      =  22.5623a 1334:n1      =  22.5623a
 +1336:n1      =  22.5623a 1338:n1      =  53.7240a 1340:n1      =  22.5623a
 +1342:n1      =  22.5623a 1344:n1      =  53.7240a 1346:n1      =  22.5623a
 +1348:n1      =  53.7240a 1350:n1      =  22.5623a 1352:n1      =  53.7240a
 +1354:n1      =  22.5623a 1356:n1      =  22.5623a 1358:n1      =  22.5623a
 +1360:n1      =  22.5623a 1362:n1      =  22.5623a 1364:n1      =  22.5623a
 +1366:n1      =  53.7240a 1368:n1      =  22.5623a 1370:n1      =  22.5623a
 +1372:n1      =  22.5623a 1374:n1      =  22.5623a 1376:n1      =  22.5623a
 +1378:n1      =  22.5623a 1380:n1      =  22.5623a 1382:n1      =  53.7240a
 +1384:n1      =  53.7240a 1386:n1      =  22.5623a 1388:n1      =  22.5623a
 +1390:n1      =  53.7240a 1392:n1      =  22.5623a 1394:n1      =  22.5623a
 +1396:n1      =  22.5623a 1398:n1      =  53.7240a 1400:n1      =  53.7240a
 +1402:n1      =  22.5623a 1404:n1      =  53.7240a 1406:n1      =  22.5623a
 +1408:n1      =  53.7240a 1410:n1      =  22.5623a 1412:n1      =  53.7240a
 +1414:n1      =  53.7240a 1416:n1      =  22.5623a 1418:n1      =  22.5623a
 +1420:n1      =  53.7240a 1422:n1      =  22.5623a 1424:n1      =  22.5623a
 +1426:n1      =  53.7240a 1428:n1      =  53.7240a 1430:n1      =  22.5623a
 +1432:n1      =  53.7240a 1434:n1      =  53.7240a 1436:n1      =  53.7240a
 +1438:n1      =  22.5623a 1440:n1      =  53.7240a 1442:n1      =  22.5623a
 +1444:n1      =  53.7240a 1446:n1      =  22.5623a 1448:n1      =  53.7240a
 +1450:n1      =  22.5623a 1452:n1      =  22.5623a 1454:n1      =  22.5623a
 +1456:n1      =  22.5623a 1458:n1      =  22.5623a 1460:n1      =  53.7240a
 +1462:n1      =  53.7240a 1464:n1      =  22.5623a 1466:n1      =  22.5623a
 +1468:n1      =  22.5623a 1470:n1      =  53.7240a 1472:n1      =  53.7240a
 +1474:n1      =  53.7240a 1476:n1      =  22.5623a 1478:n1      =  22.5623a
 +1480:n1      =  22.5623a 1482:n1      =  53.7240a 1484:n1      =  22.5623a
 +1486:n1      =  53.7240a 1488:n1      =  53.7240a 1490:n1      =  53.7240a
 +1492:n1      =  53.7240a 1494:n1      =  22.5623a 1496:n1      =  53.7240a
 +1498:n1      =  22.5623a 1500:n1      =  22.5623a 1502:n1      =  22.5623a
 +1504:n1      =  53.7240a 1506:n1      =  22.5623a 1508:n1      =  53.7240a
 +1510:n1      =  22.5623a 1512:n1      =  22.5623a 1514:n1      =  53.7240a
 +1516:n1      =  22.5623a 1518:n1      =  53.7240a 1520:n1      =  22.5623a
 +1522:n1      =  53.7240a 1524:n1      =  22.5623a 1526:n1      =  53.7240a
 +1528:n1      =  22.5623a 1530:n1      =  22.5623a 1532:n1      =  53.7240a
 +1534:n1      =  22.5623a 1536:n1      =  53.7240a 1538:n1      =  53.7240a
 +1540:n1      =  22.5623a 1542:n1      =  22.5623a 1544:n1      =  53.7240a
 +1546:n1      =  22.5623a 1548:n1      =  53.7240a 1550:n1      =  53.7240a
 +1552:n1      =  22.5623a 1554:n1      =  22.5623a 1556:n1      =  53.7240a
 +1558:n1      =  22.5623a 1560:n1      =  22.5623a 1562:n1      =  53.7240a
 +1564:n1      =  22.5623a 1566:n1      =  53.7240a 1568:n1      =  22.5623a
 +1570:n1      =  53.7240a 1572:n1      =  22.5623a 1574:n1      =  22.5623a
 +1576:n1      =  53.7240a 1578:n1      =  53.7240a 1580:n1      =  22.5623a
 +1582:n1      =  53.7240a 1584:n1      =  22.5623a 1586:n1      =  22.5623a
 +1588:n1      =  22.5623a 1590:n1      =  22.5623a 1592:n1      =  53.7240a
 +1594:n1      =  22.5623a 1596:n1      =  22.5623a 1598:n1      =  22.5623a
 +1600:n1      =  22.5623a 1602:n1      =  53.7240a 1604:n1      =  53.7240a
 +1606:n1      =  53.7240a 1608:n1      =  53.7240a 1610:n1      =  53.7240a
 +1612:n1      =  22.5623a 1614:n1      =  53.7240a 1616:n1      =  53.7240a
 +1618:n1      =  22.5623a 1620:n1      =  22.5623a 1622:n1      =  53.7240a
 +1624:n1      =  53.7240a 1626:n1      =  53.7240a 1628:n1      =  53.7240a
 +1630:n1      =  22.5623a 1632:n1      =  22.5623a 1634:n1      =  53.7240a
 +1636:n1      =  53.7240a 1638:n1      =  53.7240a 1640:n1      =  22.5623a
 +1642:n1      =  22.5623a 1644:n1      =  22.5623a 1646:n1      =  22.5623a
 +1648:n1      =  22.5623a 1650:n1      =  22.5623a 1652:n1      =  53.7240a
 +1654:n1      =  53.7240a 1656:n1      =  22.5623a 1658:n1      =  22.5623a
 +1660:n1      =  22.5623a 1662:n1      =  22.5623a 1664:n1      =  22.5623a
 +1666:n1      =  53.7240a 1668:n1      =  53.7240a 1670:n1      =  53.7240a
 +1672:n1      =  53.7240a 1674:n1      =  53.7240a 1676:n1      =  22.5623a
 +1678:n1      =  22.5623a 1680:n1      =  53.7240a 1682:n1      =  53.7240a
 +1684:n1      =  22.5623a 1686:n1      =  22.5623a 1688:n1      =  22.5623a
 +1690:n1      =  53.7240a 1692:n1      =  53.7240a 1694:n1      =  22.5623a
 +1696:n1      =  53.7240a 1698:n1      =  53.7240a 1700:n1      =  53.7240a
 +1702:n1      =  53.7240a 1704:n1      =  22.5623a 1706:n1      =  22.5623a
 +1708:n1      =  53.7240a 1710:n1      =  22.5623a 1712:n1      =  53.7240a
 +1714:n1      =  22.5623a 1716:n1      =  22.5623a 1718:n1      =  22.5623a
 +1720:n1      =  53.7240a 1722:n1      =  53.7240a 1724:n1      =  53.7240a
 +1726:n1      =  53.7240a 1728:n1      =  22.5623a 1730:n1      =  53.7240a
 +1732:n1      =  53.7240a 1734:n1      =  53.7240a 1736:n1      =  22.5623a
 +1738:n1      =  53.7240a 1740:n1      =  53.7240a 1742:n1      =  53.7240a
 +1744:n1      =  22.5623a 1746:n1      =  53.7240a 1748:n1      =  53.7240a
 +1750:n1      =  53.7240a 1752:n1      =  22.5623a 1754:n1      =  53.7240a
 +1756:n1      =  22.5623a 1758:n1      =  22.5623a 1760:n1      =  22.5623a
 +1762:n1      =  22.5623a 1764:n1      =  22.5623a 1766:n1      =  22.5623a
 +1768:n1      =  22.5623a 1770:n1      =  22.5623a 1772:n1      =  22.5623a
 +1774:n1      =  53.7240a 1776:n1      =  22.5623a 1778:n1      =  53.7240a
 +1780:n1      =  22.5623a 1782:n1      =  22.5623a 1784:n1      =  53.7240a
 +1786:n1      =  22.5623a 1788:n1      =  22.5623a 1790:n1      =  53.7240a
 +1792:n1      =  53.7240a 1794:n1      =  22.5623a 1796:n1      =  53.7240a
 +1798:n1      =  22.5623a 1800:n1      =  53.7240a 1802:n1      =  53.7240a
 +1804:n1      =  53.7240a 1806:n1      =  22.5623a 1808:n1      =  53.7240a
 +1810:n1      =  22.5623a 1812:n1      =  22.5623a 1814:n1      =  53.7240a
 +1816:n1      =  22.5623a 1818:n1      =  22.5623a 1820:n1      =  22.5623a
 +1822:n1      =  53.7240a 1824:n1      =  53.7240a 1826:n1      =  53.7240a
 +1828:n1      =  22.5623a 1830:n1      =  53.7240a 1832:n1      =  22.5623a
 +1834:n1      =  22.5623a 1836:n1      =  22.5623a 1838:n1      =  53.7240a
 +1840:n1      =  22.5623a 1842:n1      =  53.7240a 1844:n1      =  22.5623a
 +1846:n1      =  22.5623a 1848:n1      =  22.5623a 1850:n1      =  22.5623a
 +1852:n1      =  22.5623a 1854:n1      =  22.5623a 1856:n1      =  22.5623a
 +1858:n1      =  53.7240a 1860:n1      =  53.7240a 1862:n1      =  53.7240a
 +1864:n1      =  53.7240a 1866:n1      =  22.5623a 1868:n1      =  22.5623a
 +1870:n1      =  53.7240a 1872:n1      =  22.5623a 1874:n1      =  53.7240a
 +1876:n1      =  22.5623a 1878:n1      =  53.7240a 1880:n1      =  53.7240a
 +1882:n1      =  22.5623a 1884:n1      =  22.5623a 1886:n1      =  53.7240a
 +1888:n1      =  53.7240a 1890:n1      =  53.7240a 1892:n1      =  22.5623a
 +1894:n1      =  22.5623a 1896:n1      =  53.7240a 1898:n1      =  22.5623a
 +1900:n1      =  53.7240a 1902:n1      =  22.5623a 1904:n1      =  53.7240a
 +1906:n1      =  53.7240a 1908:n1      =  22.5623a 1910:n1      =  22.5623a
 +1912:n1      =  53.7240a 1914:n1      =  53.7240a 1916:n1      =  22.5623a
 +1918:n1      =  22.5623a 1920:n1      =  53.7240a 1922:n1      =  22.5623a
 +1924:n1      =  53.7240a 1926:n1      =  53.7240a 1928:n1      =  53.7240a
 +1930:n1      =  22.5623a 1932:n1      =  22.5623a 1934:n1      =  22.5623a
 +1936:n1      =  53.7240a 1938:n1      =  22.5623a 1940:n1      =  22.5623a
 +1942:n1      =  53.7240a 1944:n1      =  22.5623a 1946:n1      =  22.5623a
 +1948:n1      =  22.5623a 1950:n1      =  22.5623a 1952:n1      =  22.5623a
 +1954:n1      =  22.5623a 1956:n1      =  22.5623a 1958:n1      =  22.5623a
 +1960:n1      =  22.5623a 1962:n1      =  22.5623a 1964:n1      =  53.7240a
 +1966:n1      =  53.7240a 1968:n1      =  22.5623a 1970:n1      =  53.7240a
 +1972:n1      =  22.5623a 1974:n1      =  22.5623a 1976:n1      =  22.5623a
 +1978:n1      =  22.5623a 1980:n1      =  53.7240a 1982:n1      =  22.5623a
 +1984:n1      =  22.5623a 1986:n1      =  53.7240a 1988:n1      =  22.5623a
 +1990:n1      =  22.5623a 1992:n1      =  22.5623a 1994:n1      =  53.7240a
 +1996:n1      =  22.5623a 1998:n1      =  53.7240a 2000:n1      =  53.7240a
 +2002:n1      =  22.5623a 2004:n1      =  53.7240a 2006:n1      =  53.7240a
 +2008:n1      =  22.5623a 2010:n1      =  53.7240a 2012:n1      =  53.7240a
 +2014:n1      =  22.5623a 2016:n1      =  53.7240a 2018:n1      =  22.5623a
 +2020:n1      =  22.5623a 2022:n1      =  53.7240a 2024:n1      =  53.7240a
 +2026:n1      =  53.7240a 2028:n1      =  22.5623a 2030:n1      =  53.7240a
 +2032:n1      =  22.5623a 2034:n1      =  53.7240a 2036:n1      =  53.7240a
 +2038:n1      =  22.5623a 2040:n1      =  53.7240a 2042:n1      =  53.7240a
 +2044:n1      =  53.7240a 2046:n1      =  22.5623a 2048:n1      =  53.7240a

 
 ******
 .title dic_final

 ****** transient analysis tnom=  25.000 temp=  25.000 ******
 pwr= 174.5702854u  from=   0.             to=  20.0000000n

          ***** job concluded
 ******  
 .title dic_final

 ****** job statistics summary tnom=  25.000 temp=  25.000 ******
  
 ******  Machine Information  ******
 CPU:
 model name	: AMD EPYC 7713 64-Core Processor
 cpu MHz	: 1500.000
  
 OS:
 Linux version 3.10.0-1160.88.1.el7.x86_64 (mockbuild@kbuilder.bsys.centos.org) (gcc version 4.8.5 20150623 (Red Hat 4.8.5-44) (GCC) ) #1 SMP Tue Mar 7 15:41:52 UTC 2023


  ******  HSPICE Threads Information  ******

  Command Line Threads Count :     1
  Available CPU Count        :   256
  Actual Threads Count       :     1


  ******  Circuit Statistics  ******
  # nodes       =    2581 # elements   =    6039
  # resistors   =       0 # capacitors =       0 # inductors   =       0
  # mutual_inds =       0 # vccs       =       0 # vcvs        =       0
  # cccs        =       0 # ccvs       =       0 # volt_srcs   =       4
  # curr_srcs   =       0 # diodes     =       0 # bjts        =       0
  # jfets       =       0 # mosfets    =    5888 # U elements  =       0
  # T elements  =       0 # W elements =       0 # B elements  =       0
  # S elements  =       0 # P elements =       0 # va device   =       0
  # vector_srcs =     147 # N elements =       0


  ******  Runtime Statistics (seconds)  ******

  analysis           time    # points   tot. iter  conv.iter
  op point           0.59           1          15
  transient          1.29       20001         329         161 rev=         0
  readin             0.19
  errchk             0.25
  setup              0.06
  output             0.00


           peak memory used        467.02 megabytes
           total cpu time            2.34 seconds
           total elapsed time        2.49 seconds
           job started at     19:21:14 12/28/2024
           job ended   at     19:21:16 12/28/2024
           job total runtime         2.49 seconds


 lic: Release hspice token(s) 
 lic: total license checkout elapse time:        0.14(s)
